/*---------------------------------------------------------------------------*\
| =========                 |                                                 |
| \\      /  F ield         | OpenFOAM: The Open Source CFD Toolbox           |
|  \\    /   O peration     | Version:  2506                                  |
|   \\  /    A nd           | Website:  www.openfoam.com                      |
|    \\/     M anipulation  |                                                 |
\*---------------------------------------------------------------------------*/
Build  : _615aae61-20250627 OPENFOAM=2506 version=2506
Arch   : "LSB;label=32;scalar=64"
Exec   : chtMultiRegionSimpleFoam
Date   : Sep 23 2025
Time   : 23:41:54
Host   : instance-20250906-0051
PID    : 231171
I/O    : uncollated
Case   : /home/ubuntu/ThermalUNet/data_generation/simulation_results/case_18
nProcs : 1
trapFpe: Floating point exception trapping enabled (FOAM_SIGFPE).
fileModificationChecking : Monitoring run-time modified files using timeStampMaster (fileModificationSkew 5, maxFileModificationPolls 20)
allowSystemOperations : Allowing user-supplied system call operations

// * * * * * * * * * * * * * * * * * * * * * * * * * * * * * * * * * * * * * //
Create time

Create fluid mesh for region fluid for time = 0

Create solid mesh for region pcb for time = 0

Create solid mesh for region component_0 for time = 0

Create solid mesh for region component_1 for time = 0

Create solid mesh for region component_2 for time = 0

Create solid mesh for region component_3 for time = 0

Create solid mesh for region component_4 for time = 0

*** Reading fluid mesh thermophysical properties for region fluid

    Adding to thermoFluid

Selecting thermodynamics package 
{
    type            heRhoThermo;
    mixture         pureMixture;
    transport       const;
    thermo          hConst;
    equationOfState perfectGas;
    specie          specie;
    energy          sensibleEnthalpy;
}

    Adding to rhoFluid

    Adding to UFluid

    Adding to phiFluid

    Adding to hRefFluid

    Adding to ghFluid

    Adding to ghfFluid

    Adding to turbulence

Selecting turbulence model type RAS
Selecting RAS turbulence model realizableKE
RAS
{
    RASModel        realizableKE;
    turbulence      on;
    printCoeffs     on;
    A0              4;
    C2              1.9;
    sigmak          1;
    sigmaEps        1.2;
}

Radiation model not active: radiationProperties not found
Selecting radiationModel none
    Adding MRF

No MRF models present

    Adding fvOptions

Creating finite volume options from "system/fvOptions"

Selecting finite volume options type limitTemperature
    Source: limitT
    State: active
    - selecting all cells
    - selected 8408 cell(s) with volume 16.105476
*** Reading solid mesh thermophysical properties for region pcb

    Adding to thermos

Selecting thermodynamics package 
{
    type            heSolidThermo;
    mixture         pureMixture;
    transport       constIso;
    thermo          hConst;
    equationOfState rhoConst;
    specie          specie;
    energy          sensibleEnthalpy;
}

    Adding to radiations

Radiation model not active: radiationProperties not found
Selecting radiationModel none
    Adding fvOptions

Creating finite volume options from "system/fvOptions"

Selecting finite volume options type limitTemperature
    Source: limitT
    State: active
    - selecting all cells
    - selected 589 cell(s) with volume 1.0382635
*** Reading solid mesh thermophysical properties for region component_0

    Adding to thermos

Selecting thermodynamics package 
{
    type            heSolidThermo;
    mixture         pureMixture;
    transport       constIso;
    thermo          hConst;
    equationOfState rhoConst;
    specie          specie;
    energy          sensibleEnthalpy;
}

    Adding to radiations

Radiation model not active: radiationProperties not found
Selecting radiationModel none
    Adding fvOptions

Creating finite volume options from "system/fvOptions"

Selecting finite volume options type scalarSemiImplicitSource
    Source: v_CPU_AbsoluteEnergySource
    State: active
    - selecting cells using cellZones (component_0)
    - selected 243 cell(s) with volume 0.47590575
Selecting finite volume options type limitTemperature
    Source: limitT
    State: active
    - selecting all cells
    - selected 243 cell(s) with volume 0.47590575
*** Reading solid mesh thermophysical properties for region component_1

    Adding to thermos

Selecting thermodynamics package 
{
    type            heSolidThermo;
    mixture         pureMixture;
    transport       constIso;
    thermo          hConst;
    equationOfState rhoConst;
    specie          specie;
    energy          sensibleEnthalpy;
}

    Adding to radiations

Radiation model not active: radiationProperties not found
Selecting radiationModel none
    Adding fvOptions

Creating finite volume options from "system/fvOptions"

Selecting finite volume options type scalarSemiImplicitSource
    Source: v_CPU_AbsoluteEnergySource
    State: active
    - selecting cells using cellZones (component_1)
    - selected 175 cell(s) with volume 0.30699155
Selecting finite volume options type limitTemperature
    Source: limitT
    State: active
    - selecting all cells
    - selected 175 cell(s) with volume 0.30699155
*** Reading solid mesh thermophysical properties for region component_2

    Adding to thermos

Selecting thermodynamics package 
{
    type            heSolidThermo;
    mixture         pureMixture;
    transport       constIso;
    thermo          hConst;
    equationOfState rhoConst;
    specie          specie;
    energy          sensibleEnthalpy;
}

    Adding to radiations

Radiation model not active: radiationProperties not found
Selecting radiationModel none
    Adding fvOptions

Creating finite volume options from "system/fvOptions"

Selecting finite volume options type scalarSemiImplicitSource
    Source: v_CPU_AbsoluteEnergySource
    State: active
    - selecting cells using cellZones (component_2)
    - selected 135 cell(s) with volume 0.25345689
Selecting finite volume options type limitTemperature
    Source: limitT
    State: active
    - selecting all cells
    - selected 135 cell(s) with volume 0.25345689
*** Reading solid mesh thermophysical properties for region component_3

    Adding to thermos

Selecting thermodynamics package 
{
    type            heSolidThermo;
    mixture         pureMixture;
    transport       constIso;
    thermo          hConst;
    equationOfState rhoConst;
    specie          specie;
    energy          sensibleEnthalpy;
}

    Adding to radiations

Radiation model not active: radiationProperties not found
Selecting radiationModel none
    Adding fvOptions

Creating finite volume options from "system/fvOptions"

Selecting finite volume options type scalarSemiImplicitSource
    Source: v_CPU_AbsoluteEnergySource
    State: active
    - selecting cells using cellZones (component_3)
    - selected 22 cell(s) with volume 0.036355511
Selecting finite volume options type limitTemperature
    Source: limitT
    State: active
    - selecting all cells
    - selected 22 cell(s) with volume 0.036355511
*** Reading solid mesh thermophysical properties for region component_4

    Adding to thermos

Selecting thermodynamics package 
{
    type            heSolidThermo;
    mixture         pureMixture;
    transport       constIso;
    thermo          hConst;
    equationOfState rhoConst;
    specie          specie;
    energy          sensibleEnthalpy;
}

    Adding to radiations

Radiation model not active: radiationProperties not found
Selecting radiationModel none
    Adding fvOptions

Creating finite volume options from "system/fvOptions"

Selecting finite volume options type scalarSemiImplicitSource
    Source: v_CPU_AbsoluteEnergySource
    State: active
    - selecting cells using cellZones (component_4)
    - selected 815 cell(s) with volume 1.7835508
Selecting finite volume options type limitTemperature
    Source: limitT
    State: active
    - selecting all cells
    - selected 815 cell(s) with volume 1.7835508
Create fvMatrixAssembly.
--> FOAM Warning : 

    failed lookup of region0 (objectRegistry case_18)
    available objects of type objectRegistry:
7(component_3 component_0 component_1 fluid pcb component_4 component_2)


    From const Type& Foam::objectRegistry::lookupObject(const Foam::word&, bool) const [with Type = Foam::objectRegistry]
    in file db/objectRegistry/objectRegistryTemplates.C at line 628.
--> loading function object 'limitT'

Time = 1


Solving for fluid region fluid
DILUPBiCGStab:  Solving for Ux, Initial residual = 1, Final residual = 0.025977194, No Iterations 2
DILUPBiCGStab:  Solving for Uy, Initial residual = 1, Final residual = 0.021993935, No Iterations 2

Solving energy coupled regions
Creating lduPrimitiveAssembly: lduAssembly456789
DILUPBiCGStab:  Solving for h, Initial residual = 0.012577769, Final residual = 0.00023496083, No Iterations 1
limitTemperature=limitT, Type=Lower, LimitedCells=0, CellsPercent=0, Tmin=250, UnlimitedTmin=300
limitTemperature=limitT, Type=Upper, LimitedCells=0, CellsPercent=0, Tmax=6000, UnlimitedTmax=300
limitTemperature=limitT, Type=Lower, LimitedCells=0, CellsPercent=0, Tmin=250, UnlimitedTmin=300
limitTemperature=limitT, Type=Upper, LimitedCells=0, CellsPercent=0, Tmax=6000, UnlimitedTmax=300
limitTemperature=limitT, Type=Lower, LimitedCells=0, CellsPercent=0, Tmin=250, UnlimitedTmin=300
limitTemperature=limitT, Type=Upper, LimitedCells=0, CellsPercent=0, Tmax=600, UnlimitedTmax=300
limitTemperature=limitT, Type=Lower, LimitedCells=0, CellsPercent=0, Tmin=250, UnlimitedTmin=300
limitTemperature=limitT, Type=Upper, LimitedCells=0, CellsPercent=0, Tmax=600, UnlimitedTmax=300
limitTemperature=limitT, Type=Lower, LimitedCells=0, CellsPercent=0, Tmin=250, UnlimitedTmin=300
limitTemperature=limitT, Type=Upper, LimitedCells=0, CellsPercent=0, Tmax=600, UnlimitedTmax=300
limitTemperature=limitT, Type=Lower, LimitedCells=0, CellsPercent=0, Tmin=250, UnlimitedTmin=300
limitTemperature=limitT, Type=Upper, LimitedCells=0, CellsPercent=0, Tmax=600, UnlimitedTmax=300
limitTemperature=limitT, Type=Lower, LimitedCells=0, CellsPercent=0, Tmin=250, UnlimitedTmin=300
limitTemperature=limitT, Type=Upper, LimitedCells=0, CellsPercent=0, Tmax=600, UnlimitedTmax=300
DICPBiCGStab:  Solving for p_rgh, Initial residual = 1, Final residual = 0.084195316, No Iterations 135
time step continuity errors : sum local = 0.018084126, global = 0.01323273, cumulative = 0.01323273
Min/max rho:1.1764353 1.1766899
DILUPBiCGStab:  Solving for epsilon, Initial residual = 0.81956448, Final residual = 0.0016883828, No Iterations 1
DILUPBiCGStab:  Solving for k, Initial residual = 1, Final residual = 0.018655043, No Iterations 1
ExecutionTime = 0.38 s  ClockTime = 1 s

volFieldValue fluid write:
    volAverage(fluid) of T = 300.00009

volFieldValue pcb write:
    volAverage(pcb) of T = 300.01564

volFieldValue component_0 write:
    volAverage(component_0) of T = 302.11691

volFieldValue component_1 write:
    volAverage(component_1) of T = 300.67054

volFieldValue component_2 write:
    volAverage(component_2) of T = 300.90639

volFieldValue component_3 write:
    volAverage(component_3) of T = 308.18218

volFieldValue component_4 write:
    volAverage(component_4) of T = 300.15254

Time = 2


Solving for fluid region fluid
DILUPBiCGStab:  Solving for Ux, Initial residual = 0.6501996, Final residual = 0.014229859, No Iterations 2
DILUPBiCGStab:  Solving for Uy, Initial residual = 0.52977957, Final residual = 0.011019504, No Iterations 2

Solving energy coupled regions
Using lduPrimitiveAssembly: lduAssembly456789
DILUPBiCGStab:  Solving for h, Initial residual = 0.012453838, Final residual = 0.0001846787, No Iterations 1
limitTemperature=limitT, Type=Lower, LimitedCells=0, CellsPercent=0, Tmin=250, UnlimitedTmin=299.98241
limitTemperature=limitT, Type=Upper, LimitedCells=0, CellsPercent=0, Tmax=6000, UnlimitedTmax=300.11231
limitTemperature=limitT, Type=Lower, LimitedCells=0, CellsPercent=0, Tmin=250, UnlimitedTmin=299.98966
limitTemperature=limitT, Type=Upper, LimitedCells=0, CellsPercent=0, Tmax=6000, UnlimitedTmax=300.40633
limitTemperature=limitT, Type=Lower, LimitedCells=0, CellsPercent=0, Tmin=250, UnlimitedTmin=301.56447
limitTemperature=limitT, Type=Upper, LimitedCells=0, CellsPercent=0, Tmax=600, UnlimitedTmax=302.49037
limitTemperature=limitT, Type=Lower, LimitedCells=0, CellsPercent=0, Tmin=250, UnlimitedTmin=300.45405
limitTemperature=limitT, Type=Upper, LimitedCells=0, CellsPercent=0, Tmax=600, UnlimitedTmax=300.79921
limitTemperature=limitT, Type=Lower, LimitedCells=0, CellsPercent=0, Tmin=250, UnlimitedTmin=300.64967
limitTemperature=limitT, Type=Upper, LimitedCells=0, CellsPercent=0, Tmax=600, UnlimitedTmax=301.09895
limitTemperature=limitT, Type=Lower, LimitedCells=0, CellsPercent=0, Tmin=250, UnlimitedTmin=305.82853
limitTemperature=limitT, Type=Upper, LimitedCells=0, CellsPercent=0, Tmax=600, UnlimitedTmax=309.68456
limitTemperature=limitT, Type=Lower, LimitedCells=0, CellsPercent=0, Tmin=250, UnlimitedTmin=300.09585
limitTemperature=limitT, Type=Upper, LimitedCells=0, CellsPercent=0, Tmax=600, UnlimitedTmax=300.17367
DICPBiCGStab:  Solving for p_rgh, Initial residual = 0.084170475, Final residual = 0.0083613283, No Iterations 101
time step continuity errors : sum local = 0.02194973, global = -0.0060958087, cumulative = 0.0071369209
Min/max rho:1.1586112 1.1771391
DILUPBiCGStab:  Solving for epsilon, Initial residual = 0.79418718, Final residual = 0.0034128233, No Iterations 1
DILUPBiCGStab:  Solving for k, Initial residual = 0.84990816, Final residual = 0.020710903, No Iterations 1
ExecutionTime = 0.49 s  ClockTime = 1 s

volFieldValue fluid write:
    volAverage(fluid) of T = 300.00019

volFieldValue pcb write:
    volAverage(pcb) of T = 300.04554

volFieldValue component_0 write:
    volAverage(component_0) of T = 304.20165

volFieldValue component_1 write:
    volAverage(component_1) of T = 301.33127

volFieldValue component_2 write:
    volAverage(component_2) of T = 301.8036

volFieldValue component_3 write:
    volAverage(component_3) of T = 316.13063

volFieldValue component_4 write:
    volAverage(component_4) of T = 300.30443

Time = 3


Solving for fluid region fluid
DILUPBiCGStab:  Solving for Ux, Initial residual = 0.46620349, Final residual = 0.011641439, No Iterations 2
DILUPBiCGStab:  Solving for Uy, Initial residual = 0.35990917, Final residual = 0.0071835095, No Iterations 2

Solving energy coupled regions
Using lduPrimitiveAssembly: lduAssembly456789
DILUPBiCGStab:  Solving for h, Initial residual = 0.011884936, Final residual = 0.0002098251, No Iterations 1
limitTemperature=limitT, Type=Lower, LimitedCells=0, CellsPercent=0, Tmin=250, UnlimitedTmin=299.98604
limitTemperature=limitT, Type=Upper, LimitedCells=0, CellsPercent=0, Tmax=6000, UnlimitedTmax=300.09058
limitTemperature=limitT, Type=Lower, LimitedCells=0, CellsPercent=0, Tmin=250, UnlimitedTmin=299.98151
limitTemperature=limitT, Type=Upper, LimitedCells=0, CellsPercent=0, Tmax=6000, UnlimitedTmax=301.13411
limitTemperature=limitT, Type=Lower, LimitedCells=0, CellsPercent=0, Tmin=250, UnlimitedTmin=303.31886
limitTemperature=limitT, Type=Upper, LimitedCells=0, CellsPercent=0, Tmax=600, UnlimitedTmax=304.75236
limitTemperature=limitT, Type=Lower, LimitedCells=0, CellsPercent=0, Tmin=250, UnlimitedTmin=300.97723
limitTemperature=limitT, Type=Upper, LimitedCells=0, CellsPercent=0, Tmax=600, UnlimitedTmax=301.52178
limitTemperature=limitT, Type=Lower, LimitedCells=0, CellsPercent=0, Tmin=250, UnlimitedTmin=301.39409
limitTemperature=limitT, Type=Upper, LimitedCells=0, CellsPercent=0, Tmax=600, UnlimitedTmax=302.13421
limitTemperature=limitT, Type=Lower, LimitedCells=0, CellsPercent=0, Tmin=250, UnlimitedTmin=312.61777
limitTemperature=limitT, Type=Upper, LimitedCells=0, CellsPercent=0, Tmax=600, UnlimitedTmax=318.55258
limitTemperature=limitT, Type=Lower, LimitedCells=0, CellsPercent=0, Tmin=250, UnlimitedTmin=300.20081
limitTemperature=limitT, Type=Upper, LimitedCells=0, CellsPercent=0, Tmax=600, UnlimitedTmax=300.33884
DICPBiCGStab:  Solving for p_rgh, Initial residual = 0.054696022, Final residual = 0.005131655, No Iterations 17
time step continuity errors : sum local = 0.025495864, global = 0.0023538127, cumulative = 0.0094907336
Min/max rho:1.1338551 1.1777878
DILUPBiCGStab:  Solving for epsilon, Initial residual = 0.69877159, Final residual = 0.0049271726, No Iterations 1
DILUPBiCGStab:  Solving for k, Initial residual = 0.65069316, Final residual = 0.019696968, No Iterations 1
ExecutionTime = 0.58 s  ClockTime = 1 s

volFieldValue fluid write:
    volAverage(fluid) of T = 300.00105

volFieldValue pcb write:
    volAverage(pcb) of T = 300.08728

volFieldValue component_0 write:
    volAverage(component_0) of T = 306.03743

volFieldValue component_1 write:
    volAverage(component_1) of T = 301.95694

volFieldValue component_2 write:
    volAverage(component_2) of T = 302.65234

volFieldValue component_3 write:
    volAverage(component_3) of T = 322.74405

volFieldValue component_4 write:
    volAverage(component_4) of T = 300.45023

Time = 4


Solving for fluid region fluid
DILUPBiCGStab:  Solving for Ux, Initial residual = 0.28653941, Final residual = 0.006725069, No Iterations 2
DILUPBiCGStab:  Solving for Uy, Initial residual = 0.21818343, Final residual = 0.0043227009, No Iterations 2

Solving energy coupled regions
Using lduPrimitiveAssembly: lduAssembly456789
DILUPBiCGStab:  Solving for h, Initial residual = 0.011516163, Final residual = 0.00022281294, No Iterations 1
limitTemperature=limitT, Type=Lower, LimitedCells=0, CellsPercent=0, Tmin=250, UnlimitedTmin=299.99072
limitTemperature=limitT, Type=Upper, LimitedCells=0, CellsPercent=0, Tmax=6000, UnlimitedTmax=300.52263
limitTemperature=limitT, Type=Lower, LimitedCells=0, CellsPercent=0, Tmin=250, UnlimitedTmin=299.98328
limitTemperature=limitT, Type=Upper, LimitedCells=0, CellsPercent=0, Tmax=6000, UnlimitedTmax=302.04781
limitTemperature=limitT, Type=Lower, LimitedCells=0, CellsPercent=0, Tmin=250, UnlimitedTmin=304.34478
limitTemperature=limitT, Type=Upper, LimitedCells=0, CellsPercent=0, Tmax=600, UnlimitedTmax=306.94787
limitTemperature=limitT, Type=Lower, LimitedCells=0, CellsPercent=0, Tmin=250, UnlimitedTmin=301.51229
limitTemperature=limitT, Type=Upper, LimitedCells=0, CellsPercent=0, Tmax=600, UnlimitedTmax=302.20512
limitTemperature=limitT, Type=Lower, LimitedCells=0, CellsPercent=0, Tmin=250, UnlimitedTmin=302.14478
limitTemperature=limitT, Type=Upper, LimitedCells=0, CellsPercent=0, Tmax=600, UnlimitedTmax=303.11894
limitTemperature=limitT, Type=Lower, LimitedCells=0, CellsPercent=0, Tmin=250, UnlimitedTmin=318.93744
limitTemperature=limitT, Type=Upper, LimitedCells=0, CellsPercent=0, Tmax=600, UnlimitedTmax=325.61593
limitTemperature=limitT, Type=Lower, LimitedCells=0, CellsPercent=0, Tmin=250, UnlimitedTmin=300.30797
limitTemperature=limitT, Type=Upper, LimitedCells=0, CellsPercent=0, Tmax=600, UnlimitedTmax=300.49786
DICPBiCGStab:  Solving for p_rgh, Initial residual = 0.084252691, Final residual = 0.0080172076, No Iterations 29
time step continuity errors : sum local = 0.038866723, global = 0.016182767, cumulative = 0.0256735
Min/max rho:1.1094756 1.1781109
DILUPBiCGStab:  Solving for epsilon, Initial residual = 0.56604531, Final residual = 0.0076208601, No Iterations 1
DILUPBiCGStab:  Solving for k, Initial residual = 0.48063139, Final residual = 0.018667219, No Iterations 1
ExecutionTime = 0.68 s  ClockTime = 1 s

volFieldValue fluid write:
    volAverage(fluid) of T = 300.00242

volFieldValue pcb write:
    volAverage(pcb) of T = 300.14004

volFieldValue component_0 write:
    volAverage(component_0) of T = 307.69772

volFieldValue component_1 write:
    volAverage(component_1) of T = 302.55954

volFieldValue component_2 write:
    volAverage(component_2) of T = 303.4677

volFieldValue component_3 write:
    volAverage(component_3) of T = 328.59579

volFieldValue component_4 write:
    volAverage(component_4) of T = 300.59151

Time = 5


Solving for fluid region fluid
DILUPBiCGStab:  Solving for Ux, Initial residual = 0.18225746, Final residual = 0.0042583494, No Iterations 2
DILUPBiCGStab:  Solving for Uy, Initial residual = 0.1203284, Final residual = 0.0025360225, No Iterations 2

Solving energy coupled regions
Using lduPrimitiveAssembly: lduAssembly456789
DILUPBiCGStab:  Solving for h, Initial residual = 0.011242071, Final residual = 0.00021964111, No Iterations 1
limitTemperature=limitT, Type=Lower, LimitedCells=0, CellsPercent=0, Tmin=250, UnlimitedTmin=299.99099
limitTemperature=limitT, Type=Upper, LimitedCells=0, CellsPercent=0, Tmax=6000, UnlimitedTmax=302.70107
limitTemperature=limitT, Type=Lower, LimitedCells=0, CellsPercent=0, Tmin=250, UnlimitedTmin=299.98863
limitTemperature=limitT, Type=Upper, LimitedCells=0, CellsPercent=0, Tmax=6000, UnlimitedTmax=303.1462
limitTemperature=limitT, Type=Lower, LimitedCells=0, CellsPercent=0, Tmin=250, UnlimitedTmin=303.51676
limitTemperature=limitT, Type=Upper, LimitedCells=0, CellsPercent=0, Tmax=600, UnlimitedTmax=309.0697
limitTemperature=limitT, Type=Lower, LimitedCells=0, CellsPercent=0, Tmin=250, UnlimitedTmin=302.041
limitTemperature=limitT, Type=Upper, LimitedCells=0, CellsPercent=0, Tmax=600, UnlimitedTmax=302.87039
limitTemperature=limitT, Type=Lower, LimitedCells=0, CellsPercent=0, Tmin=250, UnlimitedTmin=302.87395
limitTemperature=limitT, Type=Upper, LimitedCells=0, CellsPercent=0, Tmax=600, UnlimitedTmax=304.06848
limitTemperature=limitT, Type=Lower, LimitedCells=0, CellsPercent=0, Tmin=250, UnlimitedTmin=322.84491
limitTemperature=limitT, Type=Upper, LimitedCells=0, CellsPercent=0, Tmax=600, UnlimitedTmax=331.88696
limitTemperature=limitT, Type=Lower, LimitedCells=0, CellsPercent=0, Tmin=250, UnlimitedTmin=300.40293
limitTemperature=limitT, Type=Upper, LimitedCells=0, CellsPercent=0, Tmax=600, UnlimitedTmax=300.65301
DICPBiCGStab:  Solving for p_rgh, Initial residual = 0.10391345, Final residual = 0.01028775, No Iterations 51
time step continuity errors : sum local = 0.047018882, global = 0.045234896, cumulative = 0.070908397
Min/max rho:1.0870994 1.1782521
DILUPBiCGStab:  Solving for epsilon, Initial residual = 0.35542671, Final residual = 0.0071452157, No Iterations 1
DILUPBiCGStab:  Solving for k, Initial residual = 0.35971594, Final residual = 0.015946026, No Iterations 1
ExecutionTime = 0.76 s  ClockTime = 1 s

volFieldValue fluid write:
    volAverage(fluid) of T = 300.0033

volFieldValue pcb write:
    volAverage(pcb) of T = 300.20071

volFieldValue component_0 write:
    volAverage(component_0) of T = 309.2949

volFieldValue component_1 write:
    volAverage(component_1) of T = 303.14732

volFieldValue component_2 write:
    volAverage(component_2) of T = 304.26075

volFieldValue component_3 write:
    volAverage(component_3) of T = 333.95093

volFieldValue component_4 write:
    volAverage(component_4) of T = 300.72957

Time = 6


Solving for fluid region fluid
DILUPBiCGStab:  Solving for Ux, Initial residual = 0.13390676, Final residual = 0.0030707072, No Iterations 2
DILUPBiCGStab:  Solving for Uy, Initial residual = 0.068890626, Final residual = 0.0021936458, No Iterations 2

Solving energy coupled regions
Using lduPrimitiveAssembly: lduAssembly456789
DILUPBiCGStab:  Solving for h, Initial residual = 0.010963737, Final residual = 0.00021806412, No Iterations 1
limitTemperature=limitT, Type=Lower, LimitedCells=0, CellsPercent=0, Tmin=250, UnlimitedTmin=299.99128
limitTemperature=limitT, Type=Upper, LimitedCells=0, CellsPercent=0, Tmax=6000, UnlimitedTmax=301.39892
limitTemperature=limitT, Type=Lower, LimitedCells=0, CellsPercent=0, Tmin=250, UnlimitedTmin=299.99294
limitTemperature=limitT, Type=Upper, LimitedCells=0, CellsPercent=0, Tmax=6000, UnlimitedTmax=304.35635
limitTemperature=limitT, Type=Lower, LimitedCells=0, CellsPercent=0, Tmin=250, UnlimitedTmin=303.56138
limitTemperature=limitT, Type=Upper, LimitedCells=0, CellsPercent=0, Tmax=600, UnlimitedTmax=311.12981
limitTemperature=limitT, Type=Lower, LimitedCells=0, CellsPercent=0, Tmin=250, UnlimitedTmin=302.56031
limitTemperature=limitT, Type=Upper, LimitedCells=0, CellsPercent=0, Tmax=600, UnlimitedTmax=303.52659
limitTemperature=limitT, Type=Lower, LimitedCells=0, CellsPercent=0, Tmin=250, UnlimitedTmin=303.48204
limitTemperature=limitT, Type=Upper, LimitedCells=0, CellsPercent=0, Tmax=600, UnlimitedTmax=304.99055
limitTemperature=limitT, Type=Lower, LimitedCells=0, CellsPercent=0, Tmin=250, UnlimitedTmin=326.3651
limitTemperature=limitT, Type=Upper, LimitedCells=0, CellsPercent=0, Tmax=600, UnlimitedTmax=337.36214
limitTemperature=limitT, Type=Lower, LimitedCells=0, CellsPercent=0, Tmin=250, UnlimitedTmin=300.49332
limitTemperature=limitT, Type=Upper, LimitedCells=0, CellsPercent=0, Tmax=600, UnlimitedTmax=300.80604
DICPBiCGStab:  Solving for p_rgh, Initial residual = 0.11957296, Final residual = 0.011705841, No Iterations 83
time step continuity errors : sum local = 0.045713066, global = 0.045655681, cumulative = 0.11656408
Min/max rho:1.0674779 1.1782042
DILUPBiCGStab:  Solving for epsilon, Initial residual = 0.22740517, Final residual = 0.0055562173, No Iterations 1
DILUPBiCGStab:  Solving for k, Initial residual = 0.27926912, Final residual = 0.012912762, No Iterations 1
ExecutionTime = 0.88 s  ClockTime = 1 s

volFieldValue fluid write:
    volAverage(fluid) of T = 300.00428

volFieldValue pcb write:
    volAverage(pcb) of T = 300.27043

volFieldValue component_0 write:
    volAverage(component_0) of T = 310.86774

volFieldValue component_1 write:
    volAverage(component_1) of T = 303.72324

volFieldValue component_2 write:
    volAverage(component_2) of T = 305.03545

volFieldValue component_3 write:
    volAverage(component_3) of T = 338.69261

volFieldValue component_4 write:
    volAverage(component_4) of T = 300.86492

Time = 7


Solving for fluid region fluid
DILUPBiCGStab:  Solving for Ux, Initial residual = 0.090107187, Final residual = 0.0020129409, No Iterations 2
DILUPBiCGStab:  Solving for Uy, Initial residual = 0.068581121, Final residual = 0.0018626039, No Iterations 2

Solving energy coupled regions
Using lduPrimitiveAssembly: lduAssembly456789
DILUPBiCGStab:  Solving for h, Initial residual = 0.010864933, Final residual = 0.0002036365, No Iterations 1
limitTemperature=limitT, Type=Lower, LimitedCells=0, CellsPercent=0, Tmin=250, UnlimitedTmin=299.99197
limitTemperature=limitT, Type=Upper, LimitedCells=0, CellsPercent=0, Tmax=6000, UnlimitedTmax=301.17832
limitTemperature=limitT, Type=Lower, LimitedCells=0, CellsPercent=0, Tmin=250, UnlimitedTmin=299.99312
limitTemperature=limitT, Type=Upper, LimitedCells=0, CellsPercent=0, Tmax=6000, UnlimitedTmax=305.73828
limitTemperature=limitT, Type=Lower, LimitedCells=0, CellsPercent=0, Tmin=250, UnlimitedTmin=304.44506
limitTemperature=limitT, Type=Upper, LimitedCells=0, CellsPercent=0, Tmax=600, UnlimitedTmax=313.13946
limitTemperature=limitT, Type=Lower, LimitedCells=0, CellsPercent=0, Tmin=250, UnlimitedTmin=303.01618
limitTemperature=limitT, Type=Upper, LimitedCells=0, CellsPercent=0, Tmax=600, UnlimitedTmax=304.16979
limitTemperature=limitT, Type=Lower, LimitedCells=0, CellsPercent=0, Tmin=250, UnlimitedTmin=303.99014
limitTemperature=limitT, Type=Upper, LimitedCells=0, CellsPercent=0, Tmax=600, UnlimitedTmax=305.88904
limitTemperature=limitT, Type=Lower, LimitedCells=0, CellsPercent=0, Tmin=250, UnlimitedTmin=330.03577
limitTemperature=limitT, Type=Upper, LimitedCells=0, CellsPercent=0, Tmax=600, UnlimitedTmax=342.67009
limitTemperature=limitT, Type=Lower, LimitedCells=0, CellsPercent=0, Tmin=250, UnlimitedTmin=300.58116
limitTemperature=limitT, Type=Upper, LimitedCells=0, CellsPercent=0, Tmax=600, UnlimitedTmax=300.95647
DICPBiCGStab:  Solving for p_rgh, Initial residual = 0.1436103, Final residual = 0.013867139, No Iterations 98
time step continuity errors : sum local = 0.037786969, global = -0.016199274, cumulative = 0.1003648
Min/max rho:1.0514824 1.1778338
DILUPBiCGStab:  Solving for epsilon, Initial residual = 0.15856012, Final residual = 0.0036789397, No Iterations 1
DILUPBiCGStab:  Solving for k, Initial residual = 0.23245065, Final residual = 0.010339775, No Iterations 1
ExecutionTime = 0.99 s  ClockTime = 1 s

volFieldValue fluid write:
    volAverage(fluid) of T = 300.00547

volFieldValue pcb write:
    volAverage(pcb) of T = 300.34848

volFieldValue component_0 write:
    volAverage(component_0) of T = 312.417

volFieldValue component_1 write:
    volAverage(component_1) of T = 304.29074

volFieldValue component_2 write:
    volAverage(component_2) of T = 305.79519

volFieldValue component_3 write:
    volAverage(component_3) of T = 343.07773

volFieldValue component_4 write:
    volAverage(component_4) of T = 300.99814

Time = 8


Solving for fluid region fluid
DILUPBiCGStab:  Solving for Ux, Initial residual = 0.13036307, Final residual = 0.003179556, No Iterations 2
DILUPBiCGStab:  Solving for Uy, Initial residual = 0.11662907, Final residual = 0.0027633375, No Iterations 2

Solving energy coupled regions
Using lduPrimitiveAssembly: lduAssembly456789
DILUPBiCGStab:  Solving for h, Initial residual = 0.011070851, Final residual = 0.00021306946, No Iterations 1
limitTemperature=limitT, Type=Lower, LimitedCells=0, CellsPercent=0, Tmin=250, UnlimitedTmin=299.99304
limitTemperature=limitT, Type=Upper, LimitedCells=0, CellsPercent=0, Tmax=6000, UnlimitedTmax=301.38295
limitTemperature=limitT, Type=Lower, LimitedCells=0, CellsPercent=0, Tmin=250, UnlimitedTmin=299.99357
limitTemperature=limitT, Type=Upper, LimitedCells=0, CellsPercent=0, Tmax=6000, UnlimitedTmax=307.23998
limitTemperature=limitT, Type=Lower, LimitedCells=0, CellsPercent=0, Tmin=250, UnlimitedTmin=305.29786
limitTemperature=limitT, Type=Upper, LimitedCells=0, CellsPercent=0, Tmax=600, UnlimitedTmax=315.11782
limitTemperature=limitT, Type=Lower, LimitedCells=0, CellsPercent=0, Tmin=250, UnlimitedTmin=303.39711
limitTemperature=limitT, Type=Upper, LimitedCells=0, CellsPercent=0, Tmax=600, UnlimitedTmax=304.8025
limitTemperature=limitT, Type=Lower, LimitedCells=0, CellsPercent=0, Tmin=250, UnlimitedTmin=304.51658
limitTemperature=limitT, Type=Upper, LimitedCells=0, CellsPercent=0, Tmax=600, UnlimitedTmax=306.76598
limitTemperature=limitT, Type=Lower, LimitedCells=0, CellsPercent=0, Tmin=250, UnlimitedTmin=333.47765
limitTemperature=limitT, Type=Upper, LimitedCells=0, CellsPercent=0, Tmax=600, UnlimitedTmax=347.51329
limitTemperature=limitT, Type=Lower, LimitedCells=0, CellsPercent=0, Tmin=250, UnlimitedTmin=300.66672
limitTemperature=limitT, Type=Upper, LimitedCells=0, CellsPercent=0, Tmax=600, UnlimitedTmax=301.10486
DICPBiCGStab:  Solving for p_rgh, Initial residual = 0.1501079, Final residual = 0.0063797737, No Iterations 102
time step continuity errors : sum local = 0.020095262, global = -0.0030853874, cumulative = 0.097279416
Min/max rho:1.0371339 1.1769106
DILUPBiCGStab:  Solving for epsilon, Initial residual = 0.10889971, Final residual = 0.0026711503, No Iterations 1
DILUPBiCGStab:  Solving for k, Initial residual = 0.19612014, Final residual = 0.0085622053, No Iterations 1
ExecutionTime = 1.09 s  ClockTime = 1 s

volFieldValue fluid write:
    volAverage(fluid) of T = 300.00769

volFieldValue pcb write:
    volAverage(pcb) of T = 300.43701

volFieldValue component_0 write:
    volAverage(component_0) of T = 313.94031

volFieldValue component_1 write:
    volAverage(component_1) of T = 304.85197

volFieldValue component_2 write:
    volAverage(component_2) of T = 306.54022

volFieldValue component_3 write:
    volAverage(component_3) of T = 347.41117

volFieldValue component_4 write:
    volAverage(component_4) of T = 301.12939

Time = 9


Solving for fluid region fluid
DILUPBiCGStab:  Solving for Ux, Initial residual = 0.32888506, Final residual = 0.0077904177, No Iterations 2
DILUPBiCGStab:  Solving for Uy, Initial residual = 0.14600156, Final residual = 0.0034608268, No Iterations 2

Solving energy coupled regions
Using lduPrimitiveAssembly: lduAssembly456789
DILUPBiCGStab:  Solving for h, Initial residual = 0.011200081, Final residual = 0.00025281431, No Iterations 1
limitTemperature=limitT, Type=Lower, LimitedCells=0, CellsPercent=0, Tmin=250, UnlimitedTmin=299.993
limitTemperature=limitT, Type=Upper, LimitedCells=0, CellsPercent=0, Tmax=6000, UnlimitedTmax=304.30806
limitTemperature=limitT, Type=Lower, LimitedCells=0, CellsPercent=0, Tmin=250, UnlimitedTmin=299.99436
limitTemperature=limitT, Type=Upper, LimitedCells=0, CellsPercent=0, Tmax=6000, UnlimitedTmax=308.85372
limitTemperature=limitT, Type=Lower, LimitedCells=0, CellsPercent=0, Tmin=250, UnlimitedTmin=305.77849
limitTemperature=limitT, Type=Upper, LimitedCells=0, CellsPercent=0, Tmax=600, UnlimitedTmax=317.06291
limitTemperature=limitT, Type=Lower, LimitedCells=0, CellsPercent=0, Tmin=250, UnlimitedTmin=303.81491
limitTemperature=limitT, Type=Upper, LimitedCells=0, CellsPercent=0, Tmax=600, UnlimitedTmax=305.42442
limitTemperature=limitT, Type=Lower, LimitedCells=0, CellsPercent=0, Tmin=250, UnlimitedTmin=305.05481
limitTemperature=limitT, Type=Upper, LimitedCells=0, CellsPercent=0, Tmax=600, UnlimitedTmax=307.62323
limitTemperature=limitT, Type=Lower, LimitedCells=0, CellsPercent=0, Tmin=250, UnlimitedTmin=336.73869
limitTemperature=limitT, Type=Upper, LimitedCells=0, CellsPercent=0, Tmax=600, UnlimitedTmax=352.18503
limitTemperature=limitT, Type=Lower, LimitedCells=0, CellsPercent=0, Tmin=250, UnlimitedTmin=300.74803
limitTemperature=limitT, Type=Upper, LimitedCells=0, CellsPercent=0, Tmax=600, UnlimitedTmax=301.25313
DICPBiCGStab:  Solving for p_rgh, Initial residual = 0.09136213, Final residual = 0.0090315982, No Iterations 16
time step continuity errors : sum local = 0.056863837, global = 0.017040074, cumulative = 0.11431949
Min/max rho:1.02272 1.1766832
DILUPBiCGStab:  Solving for epsilon, Initial residual = 0.075540194, Final residual = 0.0022392312, No Iterations 1
DILUPBiCGStab:  Solving for k, Initial residual = 0.16474314, Final residual = 0.0074085229, No Iterations 1
ExecutionTime = 1.17 s  ClockTime = 1 s

volFieldValue fluid write:
    volAverage(fluid) of T = 300.00932

volFieldValue pcb write:
    volAverage(pcb) of T = 300.53517

volFieldValue component_0 write:
    volAverage(component_0) of T = 315.42756

volFieldValue component_1 write:
    volAverage(component_1) of T = 305.40644

volFieldValue component_2 write:
    volAverage(component_2) of T = 307.27066

volFieldValue component_3 write:
    volAverage(component_3) of T = 351.31325

volFieldValue component_4 write:
    volAverage(component_4) of T = 301.25853

Time = 10


Solving for fluid region fluid
DILUPBiCGStab:  Solving for Ux, Initial residual = 0.36391165, Final residual = 0.0076162496, No Iterations 2
DILUPBiCGStab:  Solving for Uy, Initial residual = 0.11799885, Final residual = 0.0024802533, No Iterations 2

Solving energy coupled regions
Using lduPrimitiveAssembly: lduAssembly456789
DILUPBiCGStab:  Solving for h, Initial residual = 0.01111195, Final residual = 0.00021412349, No Iterations 1
limitTemperature=limitT, Type=Lower, LimitedCells=0, CellsPercent=0, Tmin=250, UnlimitedTmin=299.99286
limitTemperature=limitT, Type=Upper, LimitedCells=0, CellsPercent=0, Tmax=6000, UnlimitedTmax=302.72493
limitTemperature=limitT, Type=Lower, LimitedCells=0, CellsPercent=0, Tmin=250, UnlimitedTmin=299.99546
limitTemperature=limitT, Type=Upper, LimitedCells=0, CellsPercent=0, Tmax=6000, UnlimitedTmax=310.53972
limitTemperature=limitT, Type=Lower, LimitedCells=0, CellsPercent=0, Tmin=250, UnlimitedTmin=306.11569
limitTemperature=limitT, Type=Upper, LimitedCells=0, CellsPercent=0, Tmax=600, UnlimitedTmax=318.97396
limitTemperature=limitT, Type=Lower, LimitedCells=0, CellsPercent=0, Tmin=250, UnlimitedTmin=304.24285
limitTemperature=limitT, Type=Upper, LimitedCells=0, CellsPercent=0, Tmax=600, UnlimitedTmax=306.03328
limitTemperature=limitT, Type=Lower, LimitedCells=0, CellsPercent=0, Tmin=250, UnlimitedTmin=305.49723
limitTemperature=limitT, Type=Upper, LimitedCells=0, CellsPercent=0, Tmax=600, UnlimitedTmax=308.45776
limitTemperature=limitT, Type=Lower, LimitedCells=0, CellsPercent=0, Tmin=250, UnlimitedTmin=339.86533
limitTemperature=limitT, Type=Upper, LimitedCells=0, CellsPercent=0, Tmax=600, UnlimitedTmax=356.64258
limitTemperature=limitT, Type=Lower, LimitedCells=0, CellsPercent=0, Tmin=250, UnlimitedTmin=300.82374
limitTemperature=limitT, Type=Upper, LimitedCells=0, CellsPercent=0, Tmax=600, UnlimitedTmax=301.39914
DICPBiCGStab:  Solving for p_rgh, Initial residual = 0.11823987, Final residual = 0.010750863, No Iterations 37
time step continuity errors : sum local = 0.062894333, global = -0.012650982, cumulative = 0.10166851
Min/max rho:1.0102561 1.17666
DILUPBiCGStab:  Solving for epsilon, Initial residual = 0.062261633, Final residual = 0.0020147544, No Iterations 1
DILUPBiCGStab:  Solving for k, Initial residual = 0.15758269, Final residual = 0.0072780674, No Iterations 1
ExecutionTime = 1.26 s  ClockTime = 1 s

volFieldValue fluid write:
    volAverage(fluid) of T = 300.01225

volFieldValue pcb write:
    volAverage(pcb) of T = 300.63727

volFieldValue component_0 write:
    volAverage(component_0) of T = 316.9072

volFieldValue component_1 write:
    volAverage(component_1) of T = 305.96123

volFieldValue component_2 write:
    volAverage(component_2) of T = 307.99638

volFieldValue component_3 write:
    volAverage(component_3) of T = 355.19958

volFieldValue component_4 write:
    volAverage(component_4) of T = 301.38692

Time = 11


Solving for fluid region fluid
DILUPBiCGStab:  Solving for Ux, Initial residual = 0.39416418, Final residual = 0.0083734942, No Iterations 2
DILUPBiCGStab:  Solving for Uy, Initial residual = 0.10278522, Final residual = 0.0025070474, No Iterations 2

Solving energy coupled regions
Using lduPrimitiveAssembly: lduAssembly456789
DILUPBiCGStab:  Solving for h, Initial residual = 0.011209117, Final residual = 0.00022064165, No Iterations 1
limitTemperature=limitT, Type=Lower, LimitedCells=0, CellsPercent=0, Tmin=250, UnlimitedTmin=299.99285
limitTemperature=limitT, Type=Upper, LimitedCells=0, CellsPercent=0, Tmax=6000, UnlimitedTmax=302.19551
limitTemperature=limitT, Type=Lower, LimitedCells=0, CellsPercent=0, Tmin=250, UnlimitedTmin=299.99673
limitTemperature=limitT, Type=Upper, LimitedCells=0, CellsPercent=0, Tmax=6000, UnlimitedTmax=312.29178
limitTemperature=limitT, Type=Lower, LimitedCells=0, CellsPercent=0, Tmin=250, UnlimitedTmin=306.55094
limitTemperature=limitT, Type=Upper, LimitedCells=0, CellsPercent=0, Tmax=600, UnlimitedTmax=320.85283
limitTemperature=limitT, Type=Lower, LimitedCells=0, CellsPercent=0, Tmin=250, UnlimitedTmin=304.67325
limitTemperature=limitT, Type=Upper, LimitedCells=0, CellsPercent=0, Tmax=600, UnlimitedTmax=306.63567
limitTemperature=limitT, Type=Lower, LimitedCells=0, CellsPercent=0, Tmin=250, UnlimitedTmin=305.9407
limitTemperature=limitT, Type=Upper, LimitedCells=0, CellsPercent=0, Tmax=600, UnlimitedTmax=309.27584
limitTemperature=limitT, Type=Lower, LimitedCells=0, CellsPercent=0, Tmin=250, UnlimitedTmin=343.36468
limitTemperature=limitT, Type=Upper, LimitedCells=0, CellsPercent=0, Tmax=600, UnlimitedTmax=361.00904
limitTemperature=limitT, Type=Lower, LimitedCells=0, CellsPercent=0, Tmin=250, UnlimitedTmin=300.89905
limitTemperature=limitT, Type=Upper, LimitedCells=0, CellsPercent=0, Tmax=600, UnlimitedTmax=301.54359
DICPBiCGStab:  Solving for p_rgh, Initial residual = 0.10442989, Final residual = 0.0095331336, No Iterations 45
time step continuity errors : sum local = 0.06366113, global = -0.058348928, cumulative = 0.04331958
Min/max rho:0.99816617 1.1766606
DILUPBiCGStab:  Solving for epsilon, Initial residual = 0.054087524, Final residual = 0.0017453857, No Iterations 1
DILUPBiCGStab:  Solving for k, Initial residual = 0.1479917, Final residual = 0.0069677985, No Iterations 1
ExecutionTime = 1.31 s  ClockTime = 1 s

volFieldValue fluid write:
    volAverage(fluid) of T = 300.01433

volFieldValue pcb write:
    volAverage(pcb) of T = 300.74399

volFieldValue component_0 write:
    volAverage(component_0) of T = 318.33286

volFieldValue component_1 write:
    volAverage(component_1) of T = 306.51506

volFieldValue component_2 write:
    volAverage(component_2) of T = 308.71818

volFieldValue component_3 write:
    volAverage(component_3) of T = 358.96919

volFieldValue component_4 write:
    volAverage(component_4) of T = 301.51421

Time = 12


Solving for fluid region fluid
DILUPBiCGStab:  Solving for Ux, Initial residual = 0.36590228, Final residual = 0.0075843531, No Iterations 2
DILUPBiCGStab:  Solving for Uy, Initial residual = 0.098744891, Final residual = 0.0030418354, No Iterations 2

Solving energy coupled regions
Using lduPrimitiveAssembly: lduAssembly456789
DILUPBiCGStab:  Solving for h, Initial residual = 0.011301078, Final residual = 0.00023242176, No Iterations 1
limitTemperature=limitT, Type=Lower, LimitedCells=0, CellsPercent=0, Tmin=250, UnlimitedTmin=299.99287
limitTemperature=limitT, Type=Upper, LimitedCells=0, CellsPercent=0, Tmax=6000, UnlimitedTmax=302.56262
limitTemperature=limitT, Type=Lower, LimitedCells=0, CellsPercent=0, Tmin=250, UnlimitedTmin=299.99941
limitTemperature=limitT, Type=Upper, LimitedCells=0, CellsPercent=0, Tmax=6000, UnlimitedTmax=314.10381
limitTemperature=limitT, Type=Lower, LimitedCells=0, CellsPercent=0, Tmin=250, UnlimitedTmin=307.13741
limitTemperature=limitT, Type=Upper, LimitedCells=0, CellsPercent=0, Tmax=600, UnlimitedTmax=322.69516
limitTemperature=limitT, Type=Lower, LimitedCells=0, CellsPercent=0, Tmin=250, UnlimitedTmin=305.071
limitTemperature=limitT, Type=Upper, LimitedCells=0, CellsPercent=0, Tmax=600, UnlimitedTmax=307.23001
limitTemperature=limitT, Type=Lower, LimitedCells=0, CellsPercent=0, Tmin=250, UnlimitedTmin=306.38748
limitTemperature=limitT, Type=Upper, LimitedCells=0, CellsPercent=0, Tmax=600, UnlimitedTmax=310.07725
limitTemperature=limitT, Type=Lower, LimitedCells=0, CellsPercent=0, Tmin=250, UnlimitedTmin=346.79653
limitTemperature=limitT, Type=Upper, LimitedCells=0, CellsPercent=0, Tmax=600, UnlimitedTmax=365.24488
limitTemperature=limitT, Type=Lower, LimitedCells=0, CellsPercent=0, Tmin=250, UnlimitedTmin=300.9758
limitTemperature=limitT, Type=Upper, LimitedCells=0, CellsPercent=0, Tmax=600, UnlimitedTmax=301.68622
DICPBiCGStab:  Solving for p_rgh, Initial residual = 0.077261905, Final residual = 0.0076298168, No Iterations 67
time step continuity errors : sum local = 0.064643074, global = -0.06418579, cumulative = -0.02086621
Min/max rho:0.98621855 1.1766619
DILUPBiCGStab:  Solving for epsilon, Initial residual = 0.044478405, Final residual = 0.0016293761, No Iterations 1
DILUPBiCGStab:  Solving for k, Initial residual = 0.1289323, Final residual = 0.0018914751, No Iterations 2
ExecutionTime = 1.41 s  ClockTime = 2 s

volFieldValue fluid write:
    volAverage(fluid) of T = 300.01729

volFieldValue pcb write:
    volAverage(pcb) of T = 300.8587

volFieldValue component_0 write:
    volAverage(component_0) of T = 319.68812

volFieldValue component_1 write:
    volAverage(component_1) of T = 307.06117

volFieldValue component_2 write:
    volAverage(component_2) of T = 309.44014

volFieldValue component_3 write:
    volAverage(component_3) of T = 362.54115

volFieldValue component_4 write:
    volAverage(component_4) of T = 301.64088

Time = 13


Solving for fluid region fluid
DILUPBiCGStab:  Solving for Ux, Initial residual = 0.21985152, Final residual = 0.0043490423, No Iterations 2
DILUPBiCGStab:  Solving for Uy, Initial residual = 0.13910592, Final residual = 0.0032437302, No Iterations 2

Solving energy coupled regions
Using lduPrimitiveAssembly: lduAssembly456789
DILUPBiCGStab:  Solving for h, Initial residual = 0.011255166, Final residual = 0.00023927285, No Iterations 1
limitTemperature=limitT, Type=Lower, LimitedCells=0, CellsPercent=0, Tmin=250, UnlimitedTmin=299.99329
limitTemperature=limitT, Type=Upper, LimitedCells=0, CellsPercent=0, Tmax=6000, UnlimitedTmax=303.4924
limitTemperature=limitT, Type=Lower, LimitedCells=0, CellsPercent=0, Tmin=250, UnlimitedTmin=299.99997
limitTemperature=limitT, Type=Upper, LimitedCells=0, CellsPercent=0, Tmax=6000, UnlimitedTmax=315.97592
limitTemperature=limitT, Type=Lower, LimitedCells=0, CellsPercent=0, Tmin=250, UnlimitedTmin=307.75036
limitTemperature=limitT, Type=Upper, LimitedCells=0, CellsPercent=0, Tmax=600, UnlimitedTmax=324.50295
limitTemperature=limitT, Type=Lower, LimitedCells=0, CellsPercent=0, Tmin=250, UnlimitedTmin=305.44097
limitTemperature=limitT, Type=Upper, LimitedCells=0, CellsPercent=0, Tmax=600, UnlimitedTmax=307.81784
limitTemperature=limitT, Type=Lower, LimitedCells=0, CellsPercent=0, Tmin=250, UnlimitedTmin=306.80416
limitTemperature=limitT, Type=Upper, LimitedCells=0, CellsPercent=0, Tmax=600, UnlimitedTmax=310.86473
limitTemperature=limitT, Type=Lower, LimitedCells=0, CellsPercent=0, Tmin=250, UnlimitedTmin=349.78424
limitTemperature=limitT, Type=Upper, LimitedCells=0, CellsPercent=0, Tmax=600, UnlimitedTmax=369.357
limitTemperature=limitT, Type=Lower, LimitedCells=0, CellsPercent=0, Tmin=250, UnlimitedTmin=301.05132
limitTemperature=limitT, Type=Upper, LimitedCells=0, CellsPercent=0, Tmax=600, UnlimitedTmax=301.82719
DICPBiCGStab:  Solving for p_rgh, Initial residual = 0.093846961, Final residual = 0.0069369874, No Iterations 58
time step continuity errors : sum local = 0.043980372, global = -0.038316488, cumulative = -0.059182698
Min/max rho:0.97449909 1.1766624
DILUPBiCGStab:  Solving for epsilon, Initial residual = 0.035665076, Final residual = 0.0013744802, No Iterations 1
DILUPBiCGStab:  Solving for k, Initial residual = 0.10975373, Final residual = 0.0018123049, No Iterations 2
ExecutionTime = 1.5 s  ClockTime = 2 s

volFieldValue fluid write:
    volAverage(fluid) of T = 300.01951

volFieldValue pcb write:
    volAverage(pcb) of T = 300.98307

volFieldValue component_0 write:
    volAverage(component_0) of T = 320.96554

volFieldValue component_1 write:
    volAverage(component_1) of T = 307.59574

volFieldValue component_2 write:
    volAverage(component_2) of T = 310.15845

volFieldValue component_3 write:
    volAverage(component_3) of T = 365.80016

volFieldValue component_4 write:
    volAverage(component_4) of T = 301.7668

Time = 14


Solving for fluid region fluid
DILUPBiCGStab:  Solving for Ux, Initial residual = 0.17340051, Final residual = 0.0038019034, No Iterations 2
DILUPBiCGStab:  Solving for Uy, Initial residual = 0.18041007, Final residual = 0.0037784185, No Iterations 2

Solving energy coupled regions
Using lduPrimitiveAssembly: lduAssembly456789
DILUPBiCGStab:  Solving for h, Initial residual = 0.010954717, Final residual = 0.00021115819, No Iterations 1
limitTemperature=limitT, Type=Lower, LimitedCells=0, CellsPercent=0, Tmin=250, UnlimitedTmin=299.99342
limitTemperature=limitT, Type=Upper, LimitedCells=0, CellsPercent=0, Tmax=6000, UnlimitedTmax=303.29189
limitTemperature=limitT, Type=Lower, LimitedCells=0, CellsPercent=0, Tmin=250, UnlimitedTmin=300.00045
limitTemperature=limitT, Type=Upper, LimitedCells=0, CellsPercent=0, Tmax=6000, UnlimitedTmax=317.88775
limitTemperature=limitT, Type=Lower, LimitedCells=0, CellsPercent=0, Tmin=250, UnlimitedTmin=308.34018
limitTemperature=limitT, Type=Upper, LimitedCells=0, CellsPercent=0, Tmax=600, UnlimitedTmax=326.27372
limitTemperature=limitT, Type=Lower, LimitedCells=0, CellsPercent=0, Tmin=250, UnlimitedTmin=305.81759
limitTemperature=limitT, Type=Upper, LimitedCells=0, CellsPercent=0, Tmax=600, UnlimitedTmax=308.3998
limitTemperature=limitT, Type=Lower, LimitedCells=0, CellsPercent=0, Tmin=250, UnlimitedTmin=307.23763
limitTemperature=limitT, Type=Upper, LimitedCells=0, CellsPercent=0, Tmax=600, UnlimitedTmax=311.63957
limitTemperature=limitT, Type=Lower, LimitedCells=0, CellsPercent=0, Tmin=250, UnlimitedTmin=352.20658
limitTemperature=limitT, Type=Upper, LimitedCells=0, CellsPercent=0, Tmax=600, UnlimitedTmax=373.12166
limitTemperature=limitT, Type=Lower, LimitedCells=0, CellsPercent=0, Tmin=250, UnlimitedTmin=301.12063
limitTemperature=limitT, Type=Upper, LimitedCells=0, CellsPercent=0, Tmax=600, UnlimitedTmax=301.96631
DICPBiCGStab:  Solving for p_rgh, Initial residual = 0.38844465, Final residual = 0.038680085, No Iterations 79
time step continuity errors : sum local = 0.054681567, global = -0.01174869, cumulative = -0.070931387
Min/max rho:0.96382382 1.1766625
DILUPBiCGStab:  Solving for epsilon, Initial residual = 0.030335853, Final residual = 0.0011867587, No Iterations 1
DILUPBiCGStab:  Solving for k, Initial residual = 0.095438208, Final residual = 0.0016848542, No Iterations 2
ExecutionTime = 1.66 s  ClockTime = 2 s

volFieldValue fluid write:
    volAverage(fluid) of T = 300.02253

volFieldValue pcb write:
    volAverage(pcb) of T = 301.11366

volFieldValue component_0 write:
    volAverage(component_0) of T = 322.21435

volFieldValue component_1 write:
    volAverage(component_1) of T = 308.12577

volFieldValue component_2 write:
    volAverage(component_2) of T = 310.85876

volFieldValue component_3 write:
    volAverage(component_3) of T = 369.29482

volFieldValue component_4 write:
    volAverage(component_4) of T = 301.89221

Time = 15


Solving for fluid region fluid
DILUPBiCGStab:  Solving for Ux, Initial residual = 0.22176805, Final residual = 0.0050035176, No Iterations 2
DILUPBiCGStab:  Solving for Uy, Initial residual = 0.1659737, Final residual = 0.0056339981, No Iterations 2

Solving energy coupled regions
Using lduPrimitiveAssembly: lduAssembly456789
DILUPBiCGStab:  Solving for h, Initial residual = 0.011535931, Final residual = 0.00049560709, No Iterations 1
limitTemperature=limitT, Type=Lower, LimitedCells=0, CellsPercent=0, Tmin=250, UnlimitedTmin=299.99357
limitTemperature=limitT, Type=Upper, LimitedCells=0, CellsPercent=0, Tmax=6000, UnlimitedTmax=304.68598
limitTemperature=limitT, Type=Lower, LimitedCells=0, CellsPercent=0, Tmin=250, UnlimitedTmin=300.00073
limitTemperature=limitT, Type=Upper, LimitedCells=0, CellsPercent=0, Tmax=6000, UnlimitedTmax=319.82632
limitTemperature=limitT, Type=Lower, LimitedCells=0, CellsPercent=0, Tmin=250, UnlimitedTmin=308.96643
limitTemperature=limitT, Type=Upper, LimitedCells=0, CellsPercent=0, Tmax=600, UnlimitedTmax=328.0124
limitTemperature=limitT, Type=Lower, LimitedCells=0, CellsPercent=0, Tmin=250, UnlimitedTmin=306.2705
limitTemperature=limitT, Type=Upper, LimitedCells=0, CellsPercent=0, Tmax=600, UnlimitedTmax=308.97895
limitTemperature=limitT, Type=Lower, LimitedCells=0, CellsPercent=0, Tmin=250, UnlimitedTmin=307.67881
limitTemperature=limitT, Type=Upper, LimitedCells=0, CellsPercent=0, Tmax=600, UnlimitedTmax=312.41008
limitTemperature=limitT, Type=Lower, LimitedCells=0, CellsPercent=0, Tmin=250, UnlimitedTmin=355.97161
limitTemperature=limitT, Type=Upper, LimitedCells=0, CellsPercent=0, Tmax=600, UnlimitedTmax=376.74675
limitTemperature=limitT, Type=Lower, LimitedCells=0, CellsPercent=0, Tmin=250, UnlimitedTmin=301.18844
limitTemperature=limitT, Type=Upper, LimitedCells=0, CellsPercent=0, Tmax=600, UnlimitedTmax=302.10373
DICPBiCGStab:  Solving for p_rgh, Initial residual = 0.11663222, Final residual = 0.011569845, No Iterations 39
time step continuity errors : sum local = 0.066665971, global = -0.042067006, cumulative = -0.11299839
Min/max rho:0.95386263 1.1772644
DILUPBiCGStab:  Solving for epsilon, Initial residual = 0.027401497, Final residual = 0.0010043216, No Iterations 1
DILUPBiCGStab:  Solving for k, Initial residual = 0.086636737, Final residual = 0.0012096969, No Iterations 2
ExecutionTime = 1.69 s  ClockTime = 2 s

volFieldValue fluid write:
    volAverage(fluid) of T = 300.02561

volFieldValue pcb write:
    volAverage(pcb) of T = 301.24609

volFieldValue component_0 write:
    volAverage(component_0) of T = 323.477

volFieldValue component_1 write:
    volAverage(component_1) of T = 308.64854

volFieldValue component_2 write:
    volAverage(component_2) of T = 311.52955

volFieldValue component_3 write:
    volAverage(component_3) of T = 372.15365

volFieldValue component_4 write:
    volAverage(component_4) of T = 302.01346

Time = 16


Solving for fluid region fluid
DILUPBiCGStab:  Solving for Ux, Initial residual = 0.24906938, Final residual = 0.0049599272, No Iterations 2
DILUPBiCGStab:  Solving for Uy, Initial residual = 0.12034243, Final residual = 0.0024308795, No Iterations 2

Solving energy coupled regions
Using lduPrimitiveAssembly: lduAssembly456789
DILUPBiCGStab:  Solving for h, Initial residual = 0.010935224, Final residual = 0.00023688977, No Iterations 1
limitTemperature=limitT, Type=Lower, LimitedCells=0, CellsPercent=0, Tmin=250, UnlimitedTmin=299.99365
limitTemperature=limitT, Type=Upper, LimitedCells=0, CellsPercent=0, Tmax=6000, UnlimitedTmax=303.66361
limitTemperature=limitT, Type=Lower, LimitedCells=0, CellsPercent=0, Tmin=250, UnlimitedTmin=300.00106
limitTemperature=limitT, Type=Upper, LimitedCells=0, CellsPercent=0, Tmax=6000, UnlimitedTmax=321.78005
limitTemperature=limitT, Type=Lower, LimitedCells=0, CellsPercent=0, Tmin=250, UnlimitedTmin=309.49262
limitTemperature=limitT, Type=Upper, LimitedCells=0, CellsPercent=0, Tmax=600, UnlimitedTmax=329.67993
limitTemperature=limitT, Type=Lower, LimitedCells=0, CellsPercent=0, Tmin=250, UnlimitedTmin=306.78545
limitTemperature=limitT, Type=Upper, LimitedCells=0, CellsPercent=0, Tmax=600, UnlimitedTmax=309.53587
limitTemperature=limitT, Type=Lower, LimitedCells=0, CellsPercent=0, Tmin=250, UnlimitedTmin=308.08813
limitTemperature=limitT, Type=Upper, LimitedCells=0, CellsPercent=0, Tmax=600, UnlimitedTmax=313.16376
limitTemperature=limitT, Type=Lower, LimitedCells=0, CellsPercent=0, Tmin=250, UnlimitedTmin=358.45069
limitTemperature=limitT, Type=Upper, LimitedCells=0, CellsPercent=0, Tmax=600, UnlimitedTmax=380.05148
limitTemperature=limitT, Type=Lower, LimitedCells=0, CellsPercent=0, Tmin=250, UnlimitedTmin=301.25907
limitTemperature=limitT, Type=Upper, LimitedCells=0, CellsPercent=0, Tmax=600, UnlimitedTmax=302.23789
DICPBiCGStab:  Solving for p_rgh, Initial residual = 0.097337821, Final residual = 0.0095050118, No Iterations 16
time step continuity errors : sum local = 0.076265053, global = -0.045431937, cumulative = -0.15843033
Min/max rho:0.94522944 1.1777659
DILUPBiCGStab:  Solving for epsilon, Initial residual = 0.023273927, Final residual = 0.0009801724, No Iterations 1
DILUPBiCGStab:  Solving for k, Initial residual = 0.076187517, Final residual = 0.0010283744, No Iterations 2
ExecutionTime = 1.78 s  ClockTime = 2 s

volFieldValue fluid write:
    volAverage(fluid) of T = 300.02877

volFieldValue pcb write:
    volAverage(pcb) of T = 301.38275

volFieldValue component_0 write:
    volAverage(component_0) of T = 324.72493

volFieldValue component_1 write:
    volAverage(component_1) of T = 309.16994

volFieldValue component_2 write:
    volAverage(component_2) of T = 312.21393

volFieldValue component_3 write:
    volAverage(component_3) of T = 374.59839

volFieldValue component_4 write:
    volAverage(component_4) of T = 302.13672

Time = 17


Solving for fluid region fluid
DILUPBiCGStab:  Solving for Ux, Initial residual = 0.21621596, Final residual = 0.004541722, No Iterations 2
DILUPBiCGStab:  Solving for Uy, Initial residual = 0.081908349, Final residual = 0.0025338478, No Iterations 2

Solving energy coupled regions
Using lduPrimitiveAssembly: lduAssembly456789
DILUPBiCGStab:  Solving for h, Initial residual = 0.010913344, Final residual = 0.00029956257, No Iterations 1
limitTemperature=limitT, Type=Lower, LimitedCells=0, CellsPercent=0, Tmin=250, UnlimitedTmin=299.99372
limitTemperature=limitT, Type=Upper, LimitedCells=0, CellsPercent=0, Tmax=6000, UnlimitedTmax=303.66963
limitTemperature=limitT, Type=Lower, LimitedCells=0, CellsPercent=0, Tmin=250, UnlimitedTmin=300.0015
limitTemperature=limitT, Type=Upper, LimitedCells=0, CellsPercent=0, Tmax=6000, UnlimitedTmax=323.73881
limitTemperature=limitT, Type=Lower, LimitedCells=0, CellsPercent=0, Tmin=250, UnlimitedTmin=310.09683
limitTemperature=limitT, Type=Upper, LimitedCells=0, CellsPercent=0, Tmax=600, UnlimitedTmax=331.34341
limitTemperature=limitT, Type=Lower, LimitedCells=0, CellsPercent=0, Tmin=250, UnlimitedTmin=307.081
limitTemperature=limitT, Type=Upper, LimitedCells=0, CellsPercent=0, Tmax=600, UnlimitedTmax=310.10487
limitTemperature=limitT, Type=Lower, LimitedCells=0, CellsPercent=0, Tmin=250, UnlimitedTmin=308.55493
limitTemperature=limitT, Type=Upper, LimitedCells=0, CellsPercent=0, Tmax=600, UnlimitedTmax=313.92167
limitTemperature=limitT, Type=Lower, LimitedCells=0, CellsPercent=0, Tmin=250, UnlimitedTmin=358.45985
limitTemperature=limitT, Type=Upper, LimitedCells=0, CellsPercent=0, Tmax=600, UnlimitedTmax=383.1626
limitTemperature=limitT, Type=Lower, LimitedCells=0, CellsPercent=0, Tmin=250, UnlimitedTmin=301.33035
limitTemperature=limitT, Type=Upper, LimitedCells=0, CellsPercent=0, Tmax=600, UnlimitedTmax=302.37183
DICPBiCGStab:  Solving for p_rgh, Initial residual = 0.090836662, Final residual = 0.0090300059, No Iterations 17
time step continuity errors : sum local = 0.075149114, global = 0.00080710807, cumulative = -0.15762322
Min/max rho:0.93773105 1.1780127
DILUPBiCGStab:  Solving for epsilon, Initial residual = 0.02126918, Final residual = 0.00098510512, No Iterations 1
DILUPBiCGStab:  Solving for k, Initial residual = 0.069607233, Final residual = 0.002098716, No Iterations 2
ExecutionTime = 1.85 s  ClockTime = 2 s

volFieldValue fluid write:
    volAverage(fluid) of T = 300.03118

volFieldValue pcb write:
    volAverage(pcb) of T = 301.52683

volFieldValue component_0 write:
    volAverage(component_0) of T = 325.90388

volFieldValue component_1 write:
    volAverage(component_1) of T = 309.67303

volFieldValue component_2 write:
    volAverage(component_2) of T = 312.87513

volFieldValue component_3 write:
    volAverage(component_3) of T = 376.41245

volFieldValue component_4 write:
    volAverage(component_4) of T = 302.25788

Time = 18


Solving for fluid region fluid
DILUPBiCGStab:  Solving for Ux, Initial residual = 0.18899532, Final residual = 0.0039034362, No Iterations 2
DILUPBiCGStab:  Solving for Uy, Initial residual = 0.080057928, Final residual = 0.0019253832, No Iterations 2

Solving energy coupled regions
Using lduPrimitiveAssembly: lduAssembly456789
DILUPBiCGStab:  Solving for h, Initial residual = 0.010550178, Final residual = 0.00028103103, No Iterations 1
limitTemperature=limitT, Type=Lower, LimitedCells=0, CellsPercent=0, Tmin=250, UnlimitedTmin=299.99376
limitTemperature=limitT, Type=Upper, LimitedCells=0, CellsPercent=0, Tmax=6000, UnlimitedTmax=307.66081
limitTemperature=limitT, Type=Lower, LimitedCells=0, CellsPercent=0, Tmin=250, UnlimitedTmin=300.00202
limitTemperature=limitT, Type=Upper, LimitedCells=0, CellsPercent=0, Tmax=6000, UnlimitedTmax=325.70981
limitTemperature=limitT, Type=Lower, LimitedCells=0, CellsPercent=0, Tmin=250, UnlimitedTmin=310.29902
limitTemperature=limitT, Type=Upper, LimitedCells=0, CellsPercent=0, Tmax=600, UnlimitedTmax=332.97248
limitTemperature=limitT, Type=Lower, LimitedCells=0, CellsPercent=0, Tmin=250, UnlimitedTmin=307.28115
limitTemperature=limitT, Type=Upper, LimitedCells=0, CellsPercent=0, Tmax=600, UnlimitedTmax=310.66454
limitTemperature=limitT, Type=Lower, LimitedCells=0, CellsPercent=0, Tmin=250, UnlimitedTmin=308.92478
limitTemperature=limitT, Type=Upper, LimitedCells=0, CellsPercent=0, Tmax=600, UnlimitedTmax=314.67274
limitTemperature=limitT, Type=Lower, LimitedCells=0, CellsPercent=0, Tmin=250, UnlimitedTmin=357.24405
limitTemperature=limitT, Type=Upper, LimitedCells=0, CellsPercent=0, Tmax=600, UnlimitedTmax=386.05125
limitTemperature=limitT, Type=Lower, LimitedCells=0, CellsPercent=0, Tmin=250, UnlimitedTmin=301.40086
limitTemperature=limitT, Type=Upper, LimitedCells=0, CellsPercent=0, Tmax=600, UnlimitedTmax=302.50469
DICPBiCGStab:  Solving for p_rgh, Initial residual = 0.11083282, Final residual = 0.01081239, No Iterations 46
time step continuity errors : sum local = 0.063729466, global = 0.023922049, cumulative = -0.13370117
Min/max rho:0.93006316 1.1781304
DILUPBiCGStab:  Solving for epsilon, Initial residual = 0.020454743, Final residual = 0.0010053826, No Iterations 1
DILUPBiCGStab:  Solving for k, Initial residual = 0.067411159, Final residual = 0.0012351489, No Iterations 2
ExecutionTime = 1.89 s  ClockTime = 2 s

volFieldValue fluid write:
    volAverage(fluid) of T = 300.03493

volFieldValue pcb write:
    volAverage(pcb) of T = 301.67605

volFieldValue component_0 write:
    volAverage(component_0) of T = 327.02628

volFieldValue component_1 write:
    volAverage(component_1) of T = 310.16369

volFieldValue component_2 write:
    volAverage(component_2) of T = 313.51589

volFieldValue component_3 write:
    volAverage(component_3) of T = 378.14503

volFieldValue component_4 write:
    volAverage(component_4) of T = 302.37766

Time = 19


Solving for fluid region fluid
DILUPBiCGStab:  Solving for Ux, Initial residual = 0.16468378, Final residual = 0.0034823853, No Iterations 2
DILUPBiCGStab:  Solving for Uy, Initial residual = 0.10312927, Final residual = 0.0025315061, No Iterations 2

Solving energy coupled regions
Using lduPrimitiveAssembly: lduAssembly456789
DILUPBiCGStab:  Solving for h, Initial residual = 0.010807183, Final residual = 0.00035597662, No Iterations 1
limitTemperature=limitT, Type=Lower, LimitedCells=0, CellsPercent=0, Tmin=250, UnlimitedTmin=299.99366
limitTemperature=limitT, Type=Upper, LimitedCells=0, CellsPercent=0, Tmax=6000, UnlimitedTmax=307.06546
limitTemperature=limitT, Type=Lower, LimitedCells=0, CellsPercent=0, Tmin=250, UnlimitedTmin=300.00272
limitTemperature=limitT, Type=Upper, LimitedCells=0, CellsPercent=0, Tmax=6000, UnlimitedTmax=327.66972
limitTemperature=limitT, Type=Lower, LimitedCells=0, CellsPercent=0, Tmin=250, UnlimitedTmin=310.37105
limitTemperature=limitT, Type=Upper, LimitedCells=0, CellsPercent=0, Tmax=600, UnlimitedTmax=334.56973
limitTemperature=limitT, Type=Lower, LimitedCells=0, CellsPercent=0, Tmin=250, UnlimitedTmin=307.48575
limitTemperature=limitT, Type=Upper, LimitedCells=0, CellsPercent=0, Tmax=600, UnlimitedTmax=311.21942
limitTemperature=limitT, Type=Lower, LimitedCells=0, CellsPercent=0, Tmin=250, UnlimitedTmin=309.22066
limitTemperature=limitT, Type=Upper, LimitedCells=0, CellsPercent=0, Tmax=600, UnlimitedTmax=315.41451
limitTemperature=limitT, Type=Lower, LimitedCells=0, CellsPercent=0, Tmin=250, UnlimitedTmin=355.82609
limitTemperature=limitT, Type=Upper, LimitedCells=0, CellsPercent=0, Tmax=600, UnlimitedTmax=388.88815
limitTemperature=limitT, Type=Lower, LimitedCells=0, CellsPercent=0, Tmin=250, UnlimitedTmin=301.47174
limitTemperature=limitT, Type=Upper, LimitedCells=0, CellsPercent=0, Tmax=600, UnlimitedTmax=302.63617
DICPBiCGStab:  Solving for p_rgh, Initial residual = 0.11182786, Final residual = 0.0097881501, No Iterations 52
time step continuity errors : sum local = 0.048633822, global = 0.043297625, cumulative = -0.090403549
Min/max rho:0.92274854 1.1781369
DILUPBiCGStab:  Solving for epsilon, Initial residual = 0.018839347, Final residual = 0.0002382639, No Iterations 2
DILUPBiCGStab:  Solving for k, Initial residual = 0.06202122, Final residual = 0.0010230667, No Iterations 2
ExecutionTime = 2 s  ClockTime = 2 s

volFieldValue fluid write:
    volAverage(fluid) of T = 300.03658

volFieldValue pcb write:
    volAverage(pcb) of T = 301.82315

volFieldValue component_0 write:
    volAverage(component_0) of T = 328.10792

volFieldValue component_1 write:
    volAverage(component_1) of T = 310.64133

volFieldValue component_2 write:
    volAverage(component_2) of T = 314.13441

volFieldValue component_3 write:
    volAverage(component_3) of T = 379.87003

volFieldValue component_4 write:
    volAverage(component_4) of T = 302.49495

Time = 20


Solving for fluid region fluid
DILUPBiCGStab:  Solving for Ux, Initial residual = 0.13921869, Final residual = 0.0029270154, No Iterations 2
DILUPBiCGStab:  Solving for Uy, Initial residual = 0.14206422, Final residual = 0.0033578962, No Iterations 2

Solving energy coupled regions
Using lduPrimitiveAssembly: lduAssembly456789
DILUPBiCGStab:  Solving for h, Initial residual = 0.01045966, Final residual = 0.00029373254, No Iterations 1
limitTemperature=limitT, Type=Lower, LimitedCells=0, CellsPercent=0, Tmin=250, UnlimitedTmin=299.99327
limitTemperature=limitT, Type=Upper, LimitedCells=0, CellsPercent=0, Tmax=6000, UnlimitedTmax=304.7511
limitTemperature=limitT, Type=Lower, LimitedCells=0, CellsPercent=0, Tmin=250, UnlimitedTmin=300.0038
limitTemperature=limitT, Type=Upper, LimitedCells=0, CellsPercent=0, Tmax=6000, UnlimitedTmax=329.64234
limitTemperature=limitT, Type=Lower, LimitedCells=0, CellsPercent=0, Tmin=250, UnlimitedTmin=310.36084
limitTemperature=limitT, Type=Upper, LimitedCells=0, CellsPercent=0, Tmax=600, UnlimitedTmax=336.13833
limitTemperature=limitT, Type=Lower, LimitedCells=0, CellsPercent=0, Tmin=250, UnlimitedTmin=307.77116
limitTemperature=limitT, Type=Upper, LimitedCells=0, CellsPercent=0, Tmax=600, UnlimitedTmax=311.76184
limitTemperature=limitT, Type=Lower, LimitedCells=0, CellsPercent=0, Tmin=250, UnlimitedTmin=309.46331
limitTemperature=limitT, Type=Upper, LimitedCells=0, CellsPercent=0, Tmax=600, UnlimitedTmax=316.14639
limitTemperature=limitT, Type=Lower, LimitedCells=0, CellsPercent=0, Tmin=250, UnlimitedTmin=355.54071
limitTemperature=limitT, Type=Upper, LimitedCells=0, CellsPercent=0, Tmax=600, UnlimitedTmax=391.71697
limitTemperature=limitT, Type=Lower, LimitedCells=0, CellsPercent=0, Tmin=250, UnlimitedTmin=301.54214
limitTemperature=limitT, Type=Upper, LimitedCells=0, CellsPercent=0, Tmax=600, UnlimitedTmax=302.76747
DICPBiCGStab:  Solving for p_rgh, Initial residual = 0.15334567, Final residual = 0.010891129, No Iterations 76
time step continuity errors : sum local = 0.03992808, global = 0.025265128, cumulative = -0.065138421
Min/max rho:0.91530083 1.1779411
DILUPBiCGStab:  Solving for epsilon, Initial residual = 0.015774935, Final residual = 0.00075810846, No Iterations 1
DILUPBiCGStab:  Solving for k, Initial residual = 0.059088913, Final residual = 0.0020121671, No Iterations 2
ExecutionTime = 2.1 s  ClockTime = 2 s

volFieldValue fluid write:
    volAverage(fluid) of T = 300.0406

volFieldValue pcb write:
    volAverage(pcb) of T = 301.97471

volFieldValue component_0 write:
    volAverage(component_0) of T = 329.18233

volFieldValue component_1 write:
    volAverage(component_1) of T = 311.11577

volFieldValue component_2 write:
    volAverage(component_2) of T = 314.73847

volFieldValue component_3 write:
    volAverage(component_3) of T = 381.61455

volFieldValue component_4 write:
    volAverage(component_4) of T = 302.61115

Time = 21


Solving for fluid region fluid
DILUPBiCGStab:  Solving for Ux, Initial residual = 0.11831447, Final residual = 0.0020075909, No Iterations 2
DILUPBiCGStab:  Solving for Uy, Initial residual = 0.16001742, Final residual = 0.0064284238, No Iterations 2

Solving energy coupled regions
Using lduPrimitiveAssembly: lduAssembly456789
DILUPBiCGStab:  Solving for h, Initial residual = 0.011133018, Final residual = 6.5144996e-05, No Iterations 2
limitTemperature=limitT, Type=Lower, LimitedCells=0, CellsPercent=0, Tmin=250, UnlimitedTmin=299.99295
limitTemperature=limitT, Type=Upper, LimitedCells=0, CellsPercent=0, Tmax=6000, UnlimitedTmax=306.63728
limitTemperature=limitT, Type=Lower, LimitedCells=0, CellsPercent=0, Tmin=250, UnlimitedTmin=300.00551
limitTemperature=limitT, Type=Upper, LimitedCells=0, CellsPercent=0, Tmax=6000, UnlimitedTmax=331.59546
limitTemperature=limitT, Type=Lower, LimitedCells=0, CellsPercent=0, Tmin=250, UnlimitedTmin=310.35865
limitTemperature=limitT, Type=Upper, LimitedCells=0, CellsPercent=0, Tmax=600, UnlimitedTmax=337.68519
limitTemperature=limitT, Type=Lower, LimitedCells=0, CellsPercent=0, Tmin=250, UnlimitedTmin=308.13074
limitTemperature=limitT, Type=Upper, LimitedCells=0, CellsPercent=0, Tmax=600, UnlimitedTmax=312.2996
limitTemperature=limitT, Type=Lower, LimitedCells=0, CellsPercent=0, Tmin=250, UnlimitedTmin=309.67151
limitTemperature=limitT, Type=Upper, LimitedCells=0, CellsPercent=0, Tmax=600, UnlimitedTmax=316.86663
limitTemperature=limitT, Type=Lower, LimitedCells=0, CellsPercent=0, Tmin=250, UnlimitedTmin=356.68667
limitTemperature=limitT, Type=Upper, LimitedCells=0, CellsPercent=0, Tmax=600, UnlimitedTmax=394.37722
limitTemperature=limitT, Type=Lower, LimitedCells=0, CellsPercent=0, Tmin=250, UnlimitedTmin=301.60896
limitTemperature=limitT, Type=Upper, LimitedCells=0, CellsPercent=0, Tmax=600, UnlimitedTmax=302.89755
DICPBiCGStab:  Solving for p_rgh, Initial residual = 0.65022899, Final residual = 0.054943069, No Iterations 106
time step continuity errors : sum local = 0.047468007, global = 0.028157339, cumulative = -0.036981082
Min/max rho:0.90803709 1.1774268
DILUPBiCGStab:  Solving for epsilon, Initial residual = 0.014111536, Final residual = 0.0006765098, No Iterations 1
DILUPBiCGStab:  Solving for k, Initial residual = 0.051461704, Final residual = 0.00076863695, No Iterations 2
ExecutionTime = 2.26 s  ClockTime = 2 s

volFieldValue fluid write:
    volAverage(fluid) of T = 300.04352

volFieldValue pcb write:
    volAverage(pcb) of T = 302.13097

volFieldValue component_0 write:
    volAverage(component_0) of T = 330.24

volFieldValue component_1 write:
    volAverage(component_1) of T = 311.59107

volFieldValue component_2 write:
    volAverage(component_2) of T = 315.32678

volFieldValue component_3 write:
    volAverage(component_3) of T = 383.37157

volFieldValue component_4 write:
    volAverage(component_4) of T = 302.72793

Time = 22


Solving for fluid region fluid
DILUPBiCGStab:  Solving for Ux, Initial residual = 0.14173468, Final residual = 0.0033546543, No Iterations 2
DILUPBiCGStab:  Solving for Uy, Initial residual = 0.12134095, Final residual = 0.0028991052, No Iterations 2

Solving energy coupled regions
Using lduPrimitiveAssembly: lduAssembly456789
DILUPBiCGStab:  Solving for h, Initial residual = 0.010224923, Final residual = 0.0003183488, No Iterations 1
limitTemperature=limitT, Type=Lower, LimitedCells=0, CellsPercent=0, Tmin=250, UnlimitedTmin=299.99272
limitTemperature=limitT, Type=Upper, LimitedCells=0, CellsPercent=0, Tmax=6000, UnlimitedTmax=304.34163
limitTemperature=limitT, Type=Lower, LimitedCells=0, CellsPercent=0, Tmin=250, UnlimitedTmin=300.00137
limitTemperature=limitT, Type=Upper, LimitedCells=0, CellsPercent=0, Tmax=6000, UnlimitedTmax=333.5319
limitTemperature=limitT, Type=Lower, LimitedCells=0, CellsPercent=0, Tmin=250, UnlimitedTmin=310.44548
limitTemperature=limitT, Type=Upper, LimitedCells=0, CellsPercent=0, Tmax=600, UnlimitedTmax=339.23027
limitTemperature=limitT, Type=Lower, LimitedCells=0, CellsPercent=0, Tmin=250, UnlimitedTmin=308.50422
limitTemperature=limitT, Type=Upper, LimitedCells=0, CellsPercent=0, Tmax=600, UnlimitedTmax=312.84016
limitTemperature=limitT, Type=Lower, LimitedCells=0, CellsPercent=0, Tmin=250, UnlimitedTmin=309.90544
limitTemperature=limitT, Type=Upper, LimitedCells=0, CellsPercent=0, Tmax=600, UnlimitedTmax=317.58273
limitTemperature=limitT, Type=Lower, LimitedCells=0, CellsPercent=0, Tmin=250, UnlimitedTmin=359.02111
limitTemperature=limitT, Type=Upper, LimitedCells=0, CellsPercent=0, Tmax=600, UnlimitedTmax=396.69846
limitTemperature=limitT, Type=Lower, LimitedCells=0, CellsPercent=0, Tmin=250, UnlimitedTmin=301.66613
limitTemperature=limitT, Type=Upper, LimitedCells=0, CellsPercent=0, Tmax=600, UnlimitedTmax=303.02765
DICPBiCGStab:  Solving for p_rgh, Initial residual = 0.22127523, Final residual = 0.022062437, No Iterations 30
time step continuity errors : sum local = 0.066627863, global = 0.056991976, cumulative = 0.020010894
Min/max rho:0.90165831 1.1769906
DILUPBiCGStab:  Solving for epsilon, Initial residual = 0.016038774, Final residual = 0.00074856023, No Iterations 1
DILUPBiCGStab:  Solving for k, Initial residual = 0.057732942, Final residual = 0.00078874274, No Iterations 2
ExecutionTime = 2.36 s  ClockTime = 3 s

volFieldValue fluid write:
    volAverage(fluid) of T = 300.04777

volFieldValue pcb write:
    volAverage(pcb) of T = 302.2924

volFieldValue component_0 write:
    volAverage(component_0) of T = 331.24587

volFieldValue component_1 write:
    volAverage(component_1) of T = 312.05063

volFieldValue component_2 write:
    volAverage(component_2) of T = 315.88935

volFieldValue component_3 write:
    volAverage(component_3) of T = 384.75455

volFieldValue component_4 write:
    volAverage(component_4) of T = 302.83994

Time = 23


Solving for fluid region fluid
DILUPBiCGStab:  Solving for Ux, Initial residual = 0.12623471, Final residual = 0.0036128592, No Iterations 2
DILUPBiCGStab:  Solving for Uy, Initial residual = 0.09447148, Final residual = 0.0021878792, No Iterations 2

Solving energy coupled regions
Using lduPrimitiveAssembly: lduAssembly456789
DILUPBiCGStab:  Solving for h, Initial residual = 0.010226276, Final residual = 0.00031598191, No Iterations 1
limitTemperature=limitT, Type=Lower, LimitedCells=0, CellsPercent=0, Tmin=250, UnlimitedTmin=299.99255
limitTemperature=limitT, Type=Upper, LimitedCells=0, CellsPercent=0, Tmax=6000, UnlimitedTmax=306.27371
limitTemperature=limitT, Type=Lower, LimitedCells=0, CellsPercent=0, Tmin=250, UnlimitedTmin=299.99936
limitTemperature=limitT, Type=Upper, LimitedCells=0, CellsPercent=0, Tmax=6000, UnlimitedTmax=335.43399
limitTemperature=limitT, Type=Lower, LimitedCells=0, CellsPercent=0, Tmin=250, UnlimitedTmin=310.69716
limitTemperature=limitT, Type=Upper, LimitedCells=0, CellsPercent=0, Tmax=600, UnlimitedTmax=340.72371
limitTemperature=limitT, Type=Lower, LimitedCells=0, CellsPercent=0, Tmin=250, UnlimitedTmin=308.86773
limitTemperature=limitT, Type=Upper, LimitedCells=0, CellsPercent=0, Tmax=600, UnlimitedTmax=313.35634
limitTemperature=limitT, Type=Lower, LimitedCells=0, CellsPercent=0, Tmin=250, UnlimitedTmin=310.19184
limitTemperature=limitT, Type=Upper, LimitedCells=0, CellsPercent=0, Tmax=600, UnlimitedTmax=318.27529
limitTemperature=limitT, Type=Lower, LimitedCells=0, CellsPercent=0, Tmin=250, UnlimitedTmin=361.52689
limitTemperature=limitT, Type=Upper, LimitedCells=0, CellsPercent=0, Tmax=600, UnlimitedTmax=398.58778
limitTemperature=limitT, Type=Lower, LimitedCells=0, CellsPercent=0, Tmin=250, UnlimitedTmin=301.69054
limitTemperature=limitT, Type=Upper, LimitedCells=0, CellsPercent=0, Tmax=600, UnlimitedTmax=303.15572
DICPBiCGStab:  Solving for p_rgh, Initial residual = 0.24340045, Final residual = 0.021832451, No Iterations 47
time step continuity errors : sum local = 0.063647063, global = 0.044859365, cumulative = 0.064870258
Min/max rho:0.89596897 1.1767591
DILUPBiCGStab:  Solving for epsilon, Initial residual = 0.017012158, Final residual = 0.00065642373, No Iterations 1
DILUPBiCGStab:  Solving for k, Initial residual = 0.053370511, Final residual = 0.0024711882, No Iterations 1
ExecutionTime = 2.4 s  ClockTime = 3 s

volFieldValue fluid write:
    volAverage(fluid) of T = 300.05241

volFieldValue pcb write:
    volAverage(pcb) of T = 302.46373

volFieldValue component_0 write:
    volAverage(component_0) of T = 332.19024

volFieldValue component_1 write:
    volAverage(component_1) of T = 312.5058

volFieldValue component_2 write:
    volAverage(component_2) of T = 316.43713

volFieldValue component_3 write:
    volAverage(component_3) of T = 385.82876

volFieldValue component_4 write:
    volAverage(component_4) of T = 302.95025

Time = 24


Solving for fluid region fluid
DILUPBiCGStab:  Solving for Ux, Initial residual = 0.13517043, Final residual = 0.0034784877, No Iterations 2
DILUPBiCGStab:  Solving for Uy, Initial residual = 0.088459137, Final residual = 0.0019654, No Iterations 2

Solving energy coupled regions
Using lduPrimitiveAssembly: lduAssembly456789
DILUPBiCGStab:  Solving for h, Initial residual = 0.01019757, Final residual = 0.000460382, No Iterations 1
limitTemperature=limitT, Type=Lower, LimitedCells=0, CellsPercent=0, Tmin=250, UnlimitedTmin=299.99242
limitTemperature=limitT, Type=Upper, LimitedCells=0, CellsPercent=0, Tmax=6000, UnlimitedTmax=306.69555
limitTemperature=limitT, Type=Lower, LimitedCells=0, CellsPercent=0, Tmin=250, UnlimitedTmin=300.00526
limitTemperature=limitT, Type=Upper, LimitedCells=0, CellsPercent=0, Tmax=6000, UnlimitedTmax=337.2666
limitTemperature=limitT, Type=Lower, LimitedCells=0, CellsPercent=0, Tmin=250, UnlimitedTmin=311.04211
limitTemperature=limitT, Type=Upper, LimitedCells=0, CellsPercent=0, Tmax=600, UnlimitedTmax=342.18612
limitTemperature=limitT, Type=Lower, LimitedCells=0, CellsPercent=0, Tmin=250, UnlimitedTmin=309.14425
limitTemperature=limitT, Type=Upper, LimitedCells=0, CellsPercent=0, Tmax=600, UnlimitedTmax=313.86316
limitTemperature=limitT, Type=Lower, LimitedCells=0, CellsPercent=0, Tmin=250, UnlimitedTmin=310.4389
limitTemperature=limitT, Type=Upper, LimitedCells=0, CellsPercent=0, Tmax=600, UnlimitedTmax=318.95715
limitTemperature=limitT, Type=Lower, LimitedCells=0, CellsPercent=0, Tmin=250, UnlimitedTmin=363.63292
limitTemperature=limitT, Type=Upper, LimitedCells=0, CellsPercent=0, Tmax=600, UnlimitedTmax=400.06823
limitTemperature=limitT, Type=Lower, LimitedCells=0, CellsPercent=0, Tmin=250, UnlimitedTmin=301.69375
limitTemperature=limitT, Type=Upper, LimitedCells=0, CellsPercent=0, Tmax=600, UnlimitedTmax=303.2817
DICPBiCGStab:  Solving for p_rgh, Initial residual = 0.19799433, Final residual = 0.018550788, No Iterations 35
time step continuity errors : sum local = 0.061812749, global = 0.02967998, cumulative = 0.094550238
Min/max rho:0.8916826 1.1766533
DILUPBiCGStab:  Solving for epsilon, Initial residual = 0.015934741, Final residual = 0.00059452709, No Iterations 1
DILUPBiCGStab:  Solving for k, Initial residual = 0.045972605, Final residual = 0.0022859554, No Iterations 1
ExecutionTime = 2.49 s  ClockTime = 3 s

volFieldValue fluid write:
    volAverage(fluid) of T = 300.05686

volFieldValue pcb write:
    volAverage(pcb) of T = 302.63295

volFieldValue component_0 write:
    volAverage(component_0) of T = 333.04157

volFieldValue component_1 write:
    volAverage(component_1) of T = 312.94636

volFieldValue component_2 write:
    volAverage(component_2) of T = 316.9572

volFieldValue component_3 write:
    volAverage(component_3) of T = 386.4343

volFieldValue component_4 write:
    volAverage(component_4) of T = 303.05708

Time = 25


Solving for fluid region fluid
DILUPBiCGStab:  Solving for Ux, Initial residual = 0.15321905, Final residual = 0.0034655285, No Iterations 2
DILUPBiCGStab:  Solving for Uy, Initial residual = 0.093472723, Final residual = 0.0020834816, No Iterations 2

Solving energy coupled regions
Using lduPrimitiveAssembly: lduAssembly456789
DILUPBiCGStab:  Solving for h, Initial residual = 0.0099133407, Final residual = 0.00038704428, No Iterations 1
limitTemperature=limitT, Type=Lower, LimitedCells=0, CellsPercent=0, Tmin=250, UnlimitedTmin=299.9923
limitTemperature=limitT, Type=Upper, LimitedCells=0, CellsPercent=0, Tmax=6000, UnlimitedTmax=306.67058
limitTemperature=limitT, Type=Lower, LimitedCells=0, CellsPercent=0, Tmin=250, UnlimitedTmin=300.01918
limitTemperature=limitT, Type=Upper, LimitedCells=0, CellsPercent=0, Tmax=6000, UnlimitedTmax=339.04334
limitTemperature=limitT, Type=Lower, LimitedCells=0, CellsPercent=0, Tmin=250, UnlimitedTmin=311.19405
limitTemperature=limitT, Type=Upper, LimitedCells=0, CellsPercent=0, Tmax=600, UnlimitedTmax=343.59523
[...]

Solving energy coupled regions
Using lduPrimitiveAssembly: lduAssembly456789
DILUPBiCGStab:  Solving for h, Initial residual = 0.99907147, Final residual = 0.047459235, No Iterations 3
limitTemperature=limitT, Type=Lower, LimitedCells=488, CellsPercent=5.8, Tmin=250, UnlimitedTmin=250
limitTemperature=limitT, Type=Upper, LimitedCells=348, CellsPercent=4.14, Tmax=6000, UnlimitedTmax=6000
limitTemperature=limitT, Type=Lower, LimitedCells=138, CellsPercent=23.43, Tmin=250, UnlimitedTmin=250
limitTemperature=limitT, Type=Upper, LimitedCells=0, CellsPercent=0, Tmax=6000, UnlimitedTmax=3347.6048
limitTemperature=limitT, Type=Lower, LimitedCells=19, CellsPercent=7.82, Tmin=250, UnlimitedTmin=250
limitTemperature=limitT, Type=Upper, LimitedCells=90, CellsPercent=37.04, Tmax=600, UnlimitedTmax=600
limitTemperature=limitT, Type=Lower, LimitedCells=73, CellsPercent=41.71, Tmin=250, UnlimitedTmin=250
limitTemperature=limitT, Type=Upper, LimitedCells=81, CellsPercent=46.29, Tmax=600, UnlimitedTmax=600
limitTemperature=limitT, Type=Lower, LimitedCells=77, CellsPercent=57.04, Tmin=250, UnlimitedTmin=250
limitTemperature=limitT, Type=Upper, LimitedCells=0, CellsPercent=0, Tmax=600, UnlimitedTmax=362.44857
limitTemperature=limitT, Type=Lower, LimitedCells=0, CellsPercent=0, Tmin=250, UnlimitedTmin=342.8692
limitTemperature=limitT, Type=Upper, LimitedCells=0, CellsPercent=0, Tmax=600, UnlimitedTmax=385.68732
limitTemperature=limitT, Type=Lower, LimitedCells=23, CellsPercent=2.82, Tmin=250, UnlimitedTmin=283.71844
limitTemperature=limitT, Type=Upper, LimitedCells=0, CellsPercent=0, Tmax=600, UnlimitedTmax=313.80341
DICPBiCGStab:  Solving for p_rgh, Initial residual = 0.1519617, Final residual = 0.01518783, No Iterations 2
time step continuity errors : sum local = 1135.2747, global = 0.094558168, cumulative = 0.97021241
Min/max rho:0.18578813 8901.191
DILUPBiCGStab:  Solving for epsilon, Initial residual = 0.69317245, Final residual = 0.013610576, No Iterations 2
bounding epsilon, min: -32.107719 max: 2591886.7 average: 5783.4798
DILUPBiCGStab:  Solving for k, Initial residual = 3.2684369e-09, Final residual = 3.2684369e-09, No Iterations 0
ExecutionTime = 20.47 s  ClockTime = 21 s

volFieldValue fluid write:
    volAverage(fluid) of T = 567.43654

volFieldValue pcb write:
    volAverage(pcb) of T = 309.06629

volFieldValue component_0 write:
    volAverage(component_0) of T = 463.62135

volFieldValue component_1 write:
    volAverage(component_1) of T = 433.33761

volFieldValue component_2 write:
    volAverage(component_2) of T = 289.44434

volFieldValue component_3 write:
    volAverage(component_3) of T = 366.07649

volFieldValue component_4 write:
    volAverage(component_4) of T = 308.67475

Time = 270


Solving for fluid region fluid
DILUPBiCGStab:  Solving for Ux, Initial residual = 0.20986209, Final residual = 0.0098877235, No Iterations 1
DILUPBiCGStab:  Solving for Uy, Initial residual = 0.29036916, Final residual = 0.0049332234, No Iterations 2

Solving energy coupled regions
Using lduPrimitiveAssembly: lduAssembly456789
DILUPBiCGStab:  Solving for h, Initial residual = 0.99781995, Final residual = 0.035776816, No Iterations 1
limitTemperature=limitT, Type=Lower, LimitedCells=305, CellsPercent=3.63, Tmin=250, UnlimitedTmin=250
limitTemperature=limitT, Type=Upper, LimitedCells=365, CellsPercent=4.34, Tmax=6000, UnlimitedTmax=6000
limitTemperature=limitT, Type=Lower, LimitedCells=61, CellsPercent=10.36, Tmin=250, UnlimitedTmin=250
limitTemperature=limitT, Type=Upper, LimitedCells=10, CellsPercent=1.7, Tmax=6000, UnlimitedTmax=943.23548
limitTemperature=limitT, Type=Lower, LimitedCells=35, CellsPercent=14.4, Tmin=250, UnlimitedTmin=250
limitTemperature=limitT, Type=Upper, LimitedCells=70, CellsPercent=28.81, Tmax=600, UnlimitedTmax=600
limitTemperature=limitT, Type=Lower, LimitedCells=8, CellsPercent=4.57, Tmin=250, UnlimitedTmin=250
limitTemperature=limitT, Type=Upper, LimitedCells=103, CellsPercent=58.86, Tmax=600, UnlimitedTmax=600
limitTemperature=limitT, Type=Lower, LimitedCells=46, CellsPercent=34.07, Tmin=250, UnlimitedTmin=250
limitTemperature=limitT, Type=Upper, LimitedCells=0, CellsPercent=0, Tmax=600, UnlimitedTmax=359.44515
limitTemperature=limitT, Type=Lower, LimitedCells=0, CellsPercent=0, Tmin=250, UnlimitedTmin=342.67769
limitTemperature=limitT, Type=Upper, LimitedCells=0, CellsPercent=0, Tmax=600, UnlimitedTmax=384.82728
limitTemperature=limitT, Type=Lower, LimitedCells=0, CellsPercent=0, Tmin=250, UnlimitedTmin=250
limitTemperature=limitT, Type=Upper, LimitedCells=0, CellsPercent=0, Tmax=600, UnlimitedTmax=313.80587
DICPBiCGStab:  Solving for p_rgh, Initial residual = 0.68062906, Final residual = 0.029524591, No Iterations 1
time step continuity errors : sum local = 177218.85, global = 0.099526105, cumulative = 1.0697385
Min/max rho:0.12160263 51825.612
DILUPBiCGStab:  Solving for epsilon, Initial residual = 0.50962849, Final residual = 0.0035796541, No Iterations 1
bounding epsilon, min: -14059.124 max: 8036596.3 average: 22757.596
DILUPBiCGStab:  Solving for k, Initial residual = 1.1921006e-08, Final residual = 1.1921006e-08, No Iterations 0
ExecutionTime = 20.54 s  ClockTime = 21 s

volFieldValue fluid write:
    volAverage(fluid) of T = 625.64019

volFieldValue pcb write:
    volAverage(pcb) of T = 405.54994

volFieldValue component_0 write:
    volAverage(component_0) of T = 445.82922

volFieldValue component_1 write:
    volAverage(component_1) of T = 486.86637

volFieldValue component_2 write:
    volAverage(component_2) of T = 289.47829

volFieldValue component_3 write:
    volAverage(component_3) of T = 365.67859

volFieldValue component_4 write:
    volAverage(component_4) of T = 308.69214

Time = 271


Solving for fluid region fluid
DILUPBiCGStab:  Solving for Ux, Initial residual = 0.094570495, Final residual = 0.0013716012, No Iterations 8
DILUPBiCGStab:  Solving for Uy, Initial residual = 0.17140639, Final residual = 0.0013968535, No Iterations 6

Solving energy coupled regions
Using lduPrimitiveAssembly: lduAssembly456789
DILUPBiCGStab:  Solving for h, Initial residual = 1, Final residual = 0.02885889, No Iterations 9
limitTemperature=limitT, Type=Lower, LimitedCells=1015, CellsPercent=12.07, Tmin=250, UnlimitedTmin=250
limitTemperature=limitT, Type=Upper, LimitedCells=1217, CellsPercent=14.47, Tmax=6000, UnlimitedTmax=6000
limitTemperature=limitT, Type=Lower, LimitedCells=228, CellsPercent=38.71, Tmin=250, UnlimitedTmin=250
limitTemperature=limitT, Type=Upper, LimitedCells=66, CellsPercent=11.21, Tmax=6000, UnlimitedTmax=6000
limitTemperature=limitT, Type=Lower, LimitedCells=176, CellsPercent=72.43, Tmin=250, UnlimitedTmin=250
limitTemperature=limitT, Type=Upper, LimitedCells=67, CellsPercent=27.57, Tmax=600, UnlimitedTmax=600
limitTemperature=limitT, Type=Lower, LimitedCells=128, CellsPercent=73.14, Tmin=250, UnlimitedTmin=250
limitTemperature=limitT, Type=Upper, LimitedCells=47, CellsPercent=26.86, Tmax=600, UnlimitedTmax=600
limitTemperature=limitT, Type=Lower, LimitedCells=52, CellsPercent=38.52, Tmin=250, UnlimitedTmin=250
limitTemperature=limitT, Type=Upper, LimitedCells=0, CellsPercent=0, Tmax=600, UnlimitedTmax=356.54226
limitTemperature=limitT, Type=Lower, LimitedCells=0, CellsPercent=0, Tmin=250, UnlimitedTmin=342.71584
limitTemperature=limitT, Type=Upper, LimitedCells=0, CellsPercent=0, Tmax=600, UnlimitedTmax=384.07587
limitTemperature=limitT, Type=Lower, LimitedCells=263, CellsPercent=32.27, Tmin=250, UnlimitedTmin=251.58881
limitTemperature=limitT, Type=Upper, LimitedCells=39, CellsPercent=4.79, Tmax=600, UnlimitedTmax=313.80846
DICPBiCGStab:  Solving for p_rgh, Initial residual = 0.99888153, Final residual = 0.09861116, No Iterations 1
time step continuity errors : sum local = 5.5372934e+09, global = 0.10367023, cumulative = 1.1734087
Min/max rho:0.060801313 88796.902
DILUPBiCGStab:  Solving for epsilon, Initial residual = 0.91685062, Final residual = 0.0062831003, No Iterations 4
bounding epsilon, min: -234982.24 max: 2.3662137e+11 average: 1.3066048e+08
DILUPBiCGStab:  Solving for k, Initial residual = 5.9765572e-05, Final residual = 8.6540227e-07, No Iterations 2
bounding k, min: -5876.2558 max: 1.1975235e+09 average: 344593.78
ExecutionTime = 20.58 s  ClockTime = 21 s

volFieldValue fluid write:
    volAverage(fluid) of T = 1099.1571

volFieldValue pcb write:
    volAverage(pcb) of T = 971.37927

volFieldValue component_0 write:
    volAverage(component_0) of T = 345.0303

volFieldValue component_1 write:
    volAverage(component_1) of T = 343.71556

volFieldValue component_2 write:
    volAverage(component_2) of T = 289.80696

volFieldValue component_3 write:
    volAverage(component_3) of T = 365.30991

volFieldValue component_4 write:
    volAverage(component_4) of T = 305.02129

Time = 272


Solving for fluid region fluid
DILUPBiCGStab:  Solving for Ux, Initial residual = 0.67962773, Final residual = 0.032235774, No Iterations 6
DILUPBiCGStab:  Solving for Uy, Initial residual = 0.68540008, Final residual = 0.020115906, No Iterations 7

Solving energy coupled regions
Using lduPrimitiveAssembly: lduAssembly456789
DILUPBiCGStab:  Solving for h, Initial residual = 1, Final residual = 0.020206777, No Iterations 13
limitTemperature=limitT, Type=Lower, LimitedCells=1813, CellsPercent=21.56, Tmin=250, UnlimitedTmin=250
limitTemperature=limitT, Type=Upper, LimitedCells=2113, CellsPercent=25.13, Tmax=6000, UnlimitedTmax=6000
limitTemperature=limitT, Type=Lower, LimitedCells=124, CellsPercent=21.05, Tmin=250, UnlimitedTmin=250
limitTemperature=limitT, Type=Upper, LimitedCells=285, CellsPercent=48.39, Tmax=6000, UnlimitedTmax=6000
limitTemperature=limitT, Type=Lower, LimitedCells=0, CellsPercent=0, Tmin=250, UnlimitedTmin=250
limitTemperature=limitT, Type=Upper, LimitedCells=243, CellsPercent=100, Tmax=600, UnlimitedTmax=600
limitTemperature=limitT, Type=Lower, LimitedCells=9, CellsPercent=5.14, Tmin=250, UnlimitedTmin=250
limitTemperature=limitT, Type=Upper, LimitedCells=166, CellsPercent=94.86, Tmax=600, UnlimitedTmax=600
limitTemperature=limitT, Type=Lower, LimitedCells=135, CellsPercent=100, Tmin=250, UnlimitedTmin=250
limitTemperature=limitT, Type=Upper, LimitedCells=0, CellsPercent=0, Tmax=600, UnlimitedTmax=355.03077
limitTemperature=limitT, Type=Lower, LimitedCells=0, CellsPercent=0, Tmin=250, UnlimitedTmin=342.75824
limitTemperature=limitT, Type=Upper, LimitedCells=0, CellsPercent=0, Tmax=600, UnlimitedTmax=383.38139
limitTemperature=limitT, Type=Lower, LimitedCells=100, CellsPercent=12.27, Tmin=250, UnlimitedTmin=250
limitTemperature=limitT, Type=Upper, LimitedCells=431, CellsPercent=52.88, Tmax=600, UnlimitedTmax=600
DICPBiCGStab:  Solving for p_rgh, Initial residual = 0.99994889, Final residual = 868.11271, No Iterations 1000
time step continuity errors : sum local = 1.9702067e+19, global = -7.4566846e+18, cumulative = -7.4566846e+18
Min/max rho:0.036739765 2.1556568e+10
DILUPBiCGStab:  Solving for epsilon, Initial residual = 0.029560104, Final residual = 0.0012361576, No Iterations 6
bounding epsilon, min: -7.3199823e+14 max: 1.1661624e+16 average: 3.3100793e+13
DILUPBiCGStab:  Solving for k, Initial residual = 0.99999985, Final residual = 0.032565911, No Iterations 2
bounding k, min: -111.68223 max: 6.0576162e+18 average: 2.8436734e+16
ExecutionTime = 21.48 s  ClockTime = 22 s

volFieldValue fluid write:
    volAverage(fluid) of T = 1757.6638

volFieldValue pcb write:
    volAverage(pcb) of T = 3055.6173

volFieldValue component_0 write:
    volAverage(component_0) of T = 600

volFieldValue component_1 write:
    volAverage(component_1) of T = 585.5788

volFieldValue component_2 write:
    volAverage(component_2) of T = 250

volFieldValue component_3 write:
    volAverage(component_3) of T = 364.8554

volFieldValue component_4 write:
    volAverage(component_4) of T = 455.80952

Time = 273


Solving for fluid region fluid
DILUPBiCGStab:  Solving for Ux, Initial residual = 0.079105204, Final residual = 0.0023036309, No Iterations 2
DILUPBiCGStab:  Solving for Uy, Initial residual = 0.23394971, Final residual = 0.006655378, No Iterations 2

Solving energy coupled regions
Using lduPrimitiveAssembly: lduAssembly456789
DILUPBiCGStab:  Solving for h, Initial residual = 1, Final residual = 0.020747305, No Iterations 31
limitTemperature=limitT, Type=Lower, LimitedCells=5459, CellsPercent=64.93, Tmin=250, UnlimitedTmin=250
limitTemperature=limitT, Type=Upper, LimitedCells=2949, CellsPercent=35.07, Tmax=6000, UnlimitedTmax=6000
limitTemperature=limitT, Type=Lower, LimitedCells=589, CellsPercent=100, Tmin=250, UnlimitedTmin=250
limitTemperature=limitT, Type=Upper, LimitedCells=0, CellsPercent=0, Tmax=6000, UnlimitedTmax=6000
limitTemperature=limitT, Type=Lower, LimitedCells=243, CellsPercent=100, Tmin=250, UnlimitedTmin=600
limitTemperature=limitT, Type=Upper, LimitedCells=0, CellsPercent=0, Tmax=600, UnlimitedTmax=600
limitTemperature=limitT, Type=Lower, LimitedCells=175, CellsPercent=100, Tmin=250, UnlimitedTmin=250
limitTemperature=limitT, Type=Upper, LimitedCells=0, CellsPercent=0, Tmax=600, UnlimitedTmax=600
limitTemperature=limitT, Type=Lower, LimitedCells=135, CellsPercent=100, Tmin=250, UnlimitedTmin=250
limitTemperature=limitT, Type=Upper, LimitedCells=0, CellsPercent=0, Tmax=600, UnlimitedTmax=250
limitTemperature=limitT, Type=Lower, LimitedCells=22, CellsPercent=100, Tmin=250, UnlimitedTmin=341.56724
limitTemperature=limitT, Type=Upper, LimitedCells=0, CellsPercent=0, Tmax=600, UnlimitedTmax=382.35474
limitTemperature=limitT, Type=Lower, LimitedCells=815, CellsPercent=100, Tmin=250, UnlimitedTmin=250
limitTemperature=limitT, Type=Upper, LimitedCells=0, CellsPercent=0, Tmax=600, UnlimitedTmax=600
DICPBiCGStab:  Solving for p_rgh, Initial residual = 0.90393641, Final residual = 0.058005065, No Iterations 1
time step continuity errors : sum local = 1.3553229e+20, global = -7.5308896e+17, cumulative = -8.2097736e+18
Min/max rho:0.018369882 5.0001078e+14
DILUPBiCGStab:  Solving for epsilon, Initial residual = 0.48285565, Final residual = 0.0084414573, No Iterations 9
bounding epsilon, min: -3.5591974e+29 max: 3.4511889e+38 average: 1.9037206e+35
DILUPBiCGStab:  Solving for k, Initial residual = 0.066768937, Final residual = 0.00021643983, No Iterations 1
bounding k, min: -5.3166181e+16 max: 6.6947e+32 average: 3.4947787e+29
ExecutionTime = 21.56 s  ClockTime = 22 s

volFieldValue fluid write:
    volAverage(fluid) of T = 2296.948

volFieldValue pcb write:
    volAverage(pcb) of T = 250

volFieldValue component_0 write:
    volAverage(component_0) of T = 250

volFieldValue component_1 write:
    volAverage(component_1) of T = 250

volFieldValue component_2 write:
    volAverage(component_2) of T = 250

volFieldValue component_3 write:
    volAverage(component_3) of T = 250

volFieldValue component_4 write:
    volAverage(component_4) of T = 250

Time = 274


Solving for fluid region fluid
DILUPBiCGStab:  Solving for Ux, Initial residual = 0.055890249, Final residual = 0.00027916225, No Iterations 14
DILUPBiCGStab:  Solving for Uy, Initial residual = 0.51357591, Final residual = 0.015818476, No Iterations 13

Solving energy coupled regions
Using lduPrimitiveAssembly: lduAssembly456789
DILUPBiCGStab:  Solving for h, Initial residual = 1, Final residual = 0.048752312, No Iterations 25
limitTemperature=limitT, Type=Lower, LimitedCells=6430, CellsPercent=76.47, Tmin=250, UnlimitedTmin=250
limitTemperature=limitT, Type=Upper, LimitedCells=1978, CellsPercent=23.53, Tmax=6000, UnlimitedTmax=6000
limitTemperature=limitT, Type=Lower, LimitedCells=568, CellsPercent=96.43, Tmin=250, UnlimitedTmin=250
limitTemperature=limitT, Type=Upper, LimitedCells=21, CellsPercent=3.57, Tmax=6000, UnlimitedTmax=250
limitTemperature=limitT, Type=Lower, LimitedCells=243, CellsPercent=100, Tmin=250, UnlimitedTmin=250
limitTemperature=limitT, Type=Upper, LimitedCells=0, CellsPercent=0, Tmax=600, UnlimitedTmax=250
limitTemperature=limitT, Type=Lower, LimitedCells=175, CellsPercent=100, Tmin=250, UnlimitedTmin=250
limitTemperature=limitT, Type=Upper, LimitedCells=0, CellsPercent=0, Tmax=600, UnlimitedTmax=250
limitTemperature=limitT, Type=Lower, LimitedCells=135, CellsPercent=100, Tmin=250, UnlimitedTmin=250
limitTemperature=limitT, Type=Upper, LimitedCells=0, CellsPercent=0, Tmax=600, UnlimitedTmax=250
limitTemperature=limitT, Type=Lower, LimitedCells=8, CellsPercent=36.36, Tmin=250, UnlimitedTmin=250
limitTemperature=limitT, Type=Upper, LimitedCells=14, CellsPercent=63.64, Tmax=600, UnlimitedTmax=250
limitTemperature=limitT, Type=Lower, LimitedCells=777, CellsPercent=95.34, Tmin=250, UnlimitedTmin=250
limitTemperature=limitT, Type=Upper, LimitedCells=38, CellsPercent=4.66, Tmax=600, UnlimitedTmax=250
DICPBiCGStab:  Solving for p_rgh, Initial residual = 0.97548076, Final residual = 0.06388437, No Iterations 95
time step continuity errors : sum local = 3.7466499e+35, global = 4.4414066e+25, cumulative = 4.4414058e+25
Min/max rho:0.014824523 7.5000539e+14
DILUPBiCGStab:  Solving for epsilon, Initial residual = 1, Final residual = 0.012971957, No Iterations 28
bounding epsilon, min: -8.505304e+64 max: 2.6017238e+51 average: -1.3897056e+62
DILUPBiCGStab:  Solving for k, Initial residual = 0.99683361, Final residual = 0.035816556, No Iterations 1
bounding k, min: -5.4993367e+31 max: 1.9198086e+49 average: 1.6000014e+46
ExecutionTime = 21.76 s  ClockTime = 22 s

volFieldValue fluid write:
    volAverage(fluid) of T = 1706.7901

volFieldValue pcb write:
    volAverage(pcb) of T = 448.86106

volFieldValue component_0 write:
    volAverage(component_0) of T = 250

volFieldValue component_1 write:
    volAverage(component_1) of T = 250

volFieldValue component_2 write:
    volAverage(component_2) of T = 250

volFieldValue component_3 write:
    volAverage(component_3) of T = 453.08186

volFieldValue component_4 write:
    volAverage(component_4) of T = 265.07484

Time = 275


Solving for fluid region fluid
DILUPBiCGStab:  Solving for Ux, Initial residual = 0.40876388, Final residual = 0.00099750211, No Iterations 23
DILUPBiCGStab:  Solving for Uy, Initial residual = 0.41897207, Final residual = 0.0035102171, No Iterations 25

Solving energy coupled regions
Using lduPrimitiveAssembly: lduAssembly456789
[stack trace]
=============
#1  Foam::sigFpe::sigHandler(int) in /usr/lib/openfoam/openfoam2506/platforms/linux64GccDPInt32Opt/lib/libOpenFOAM.so
#2  ? in /lib/x86_64-linux-gnu/libc.so.6
#3  Foam::scalarProduct<double, double>::type Foam::sumProd<double>(Foam::UList<double> const&, Foam::UList<double> const&) in /usr/lib/openfoam/openfoam2506/platforms/linux64GccDPInt32Opt/lib/libOpenFOAM.so
#4  ? in /usr/lib/openfoam/openfoam2506/platforms/linux64GccDPInt32Opt/lib/libOpenFOAM.so
#5  Foam::PBiCGStab::scalarSolve(Foam::Field<double>&, Foam::Field<double> const&, unsigned char) const in /usr/lib/openfoam/openfoam2506/platforms/linux64GccDPInt32Opt/lib/libOpenFOAM.so
#6  Foam::PBiCGStab::solve(Foam::Field<double>&, Foam::Field<double> const&, unsigned char) const in /usr/lib/openfoam/openfoam2506/platforms/linux64GccDPInt32Opt/lib/libOpenFOAM.so
#7  Foam::fvMatrix<double>::solveSegregated(Foam::dictionary const&) in /usr/lib/openfoam/openfoam2506/platforms/linux64GccDPInt32Opt/lib/libfiniteVolume.so
#8  ? in /usr/lib/openfoam/openfoam2506/platforms/linux64GccDPInt32Opt/lib/libfiniteVolume.so
#9  Foam::fvMesh::solve(Foam::fvMatrix<double>&, Foam::dictionary const&) const in /usr/lib/openfoam/openfoam2506/platforms/linux64GccDPInt32Opt/lib/libfiniteVolume.so
#10  ? in /usr/lib/openfoam/openfoam2506/platforms/linux64GccDPInt32Opt/bin/chtMultiRegionSimpleFoam
#11  ? in /usr/lib/openfoam/openfoam2506/platforms/linux64GccDPInt32Opt/bin/chtMultiRegionSimpleFoam
#12  ? in /lib/x86_64-linux-gnu/libc.so.6
#13  __libc_start_main in /lib/x86_64-linux-gnu/libc.so.6
#14  ? in /usr/lib/openfoam/openfoam2506/platforms/linux64GccDPInt32Opt/bin/chtMultiRegionSimpleFoam
=============
Floating point exception (core dumped)
