/*---------------------------------------------------------------------------*\
| =========                 |                                                 |
| \\      /  F ield         | OpenFOAM: The Open Source CFD Toolbox           |
|  \\    /   O peration     | Version:  2506                                  |
|   \\  /    A nd           | Website:  www.openfoam.com                      |
|    \\/     M anipulation  |                                                 |
\*---------------------------------------------------------------------------*/
Build  : _615aae61-20250627 OPENFOAM=2506 version=2506
Arch   : "LSB;label=32;scalar=64"
Exec   : chtMultiRegionSimpleFoam
Date   : Sep 25 2025
Time   : 00:00:38
Host   : instance-20250906-0051
PID    : 244628
I/O    : uncollated
Case   : /home/ubuntu/ThermalUNet/data_generation/simulation_results/of/case_28
nProcs : 1
trapFpe: Floating point exception trapping enabled (FOAM_SIGFPE).
fileModificationChecking : Monitoring run-time modified files using timeStampMaster (fileModificationSkew 5, maxFileModificationPolls 20)
allowSystemOperations : Allowing user-supplied system call operations

// * * * * * * * * * * * * * * * * * * * * * * * * * * * * * * * * * * * * * //
Create time

Create fluid mesh for region fluid for time = 0

Create solid mesh for region pcb for time = 0

Create solid mesh for region component_0 for time = 0

Create solid mesh for region component_1 for time = 0

Create solid mesh for region component_2 for time = 0

Create solid mesh for region component_3 for time = 0

Create solid mesh for region component_4 for time = 0

*** Reading fluid mesh thermophysical properties for region fluid

    Adding to thermoFluid

Selecting thermodynamics package 
{
    type            heRhoThermo;
    mixture         pureMixture;
    transport       const;
    thermo          hConst;
    equationOfState perfectGas;
    specie          specie;
    energy          sensibleEnthalpy;
}

    Adding to rhoFluid

    Adding to UFluid

    Adding to phiFluid

    Adding to hRefFluid

    Adding to ghFluid

    Adding to ghfFluid

    Adding to turbulence

Selecting turbulence model type RAS
Selecting RAS turbulence model realizableKE
RAS
{
    RASModel        realizableKE;
    turbulence      on;
    printCoeffs     on;
    A0              4;
    C2              1.9;
    sigmak          1;
    sigmaEps        1.2;
}

Radiation model not active: radiationProperties not found
Selecting radiationModel none
    Adding MRF

No MRF models present

    Adding fvOptions

Creating finite volume options from "system/fvOptions"

Selecting finite volume options type limitTemperature
    Source: limitT
    State: active
    - selecting all cells
    - selected 9014 cell(s) with volume 17.699695
*** Reading solid mesh thermophysical properties for region pcb

    Adding to thermos

Selecting thermodynamics package 
{
    type            heSolidThermo;
    mixture         pureMixture;
    transport       constIso;
    thermo          hConst;
    equationOfState rhoConst;
    specie          specie;
    energy          sensibleEnthalpy;
}

    Adding to radiations

Radiation model not active: radiationProperties not found
Selecting radiationModel none
    Adding fvOptions

Creating finite volume options from "system/fvOptions"

Selecting finite volume options type limitTemperature
    Source: limitT
    State: active
    - selecting all cells
    - selected 501 cell(s) with volume 0.95436567
*** Reading solid mesh thermophysical properties for region component_0

    Adding to thermos

Selecting thermodynamics package 
{
    type            heSolidThermo;
    mixture         pureMixture;
    transport       constIso;
    thermo          hConst;
    equationOfState rhoConst;
    specie          specie;
    energy          sensibleEnthalpy;
}

    Adding to radiations

Radiation model not active: radiationProperties not found
Selecting radiationModel none
    Adding fvOptions

Creating finite volume options from "system/fvOptions"

Selecting finite volume options type scalarSemiImplicitSource
    Source: v_CPU_AbsoluteEnergySource
    State: active
    - selecting cells using cellZones (component_0)
    - selected 155 cell(s) with volume 0.25826261
Selecting finite volume options type limitTemperature
    Source: limitT
    State: active
    - selecting all cells
    - selected 155 cell(s) with volume 0.25826261
*** Reading solid mesh thermophysical properties for region component_1

    Adding to thermos

Selecting thermodynamics package 
{
    type            heSolidThermo;
    mixture         pureMixture;
    transport       constIso;
    thermo          hConst;
    equationOfState rhoConst;
    specie          specie;
    energy          sensibleEnthalpy;
}

    Adding to radiations

Radiation model not active: radiationProperties not found
Selecting radiationModel none
    Adding fvOptions

Creating finite volume options from "system/fvOptions"

Selecting finite volume options type scalarSemiImplicitSource
    Source: v_CPU_AbsoluteEnergySource
    State: active
    - selecting cells using cellZones (component_1)
    - selected 163 cell(s) with volume 0.31495022
Selecting finite volume options type limitTemperature
    Source: limitT
    State: active
    - selecting all cells
    - selected 163 cell(s) with volume 0.31495022
*** Reading solid mesh thermophysical properties for region component_2

    Adding to thermos

Selecting thermodynamics package 
{
    type            heSolidThermo;
    mixture         pureMixture;
    transport       constIso;
    thermo          hConst;
    equationOfState rhoConst;
    specie          specie;
    energy          sensibleEnthalpy;
}

    Adding to radiations

Radiation model not active: radiationProperties not found
Selecting radiationModel none
    Adding fvOptions

Creating finite volume options from "system/fvOptions"

Selecting finite volume options type scalarSemiImplicitSource
    Source: v_CPU_AbsoluteEnergySource
    State: active
    - selecting cells using cellZones (component_2)
    - selected 55 cell(s) with volume 0.085232675
Selecting finite volume options type limitTemperature
    Source: limitT
    State: active
    - selecting all cells
    - selected 55 cell(s) with volume 0.085232675
*** Reading solid mesh thermophysical properties for region component_3

    Adding to thermos

Selecting thermodynamics package 
{
    type            heSolidThermo;
    mixture         pureMixture;
    transport       constIso;
    thermo          hConst;
    equationOfState rhoConst;
    specie          specie;
    energy          sensibleEnthalpy;
}

    Adding to radiations

Radiation model not active: radiationProperties not found
Selecting radiationModel none
    Adding fvOptions

Creating finite volume options from "system/fvOptions"

Selecting finite volume options type scalarSemiImplicitSource
    Source: v_CPU_AbsoluteEnergySource
    State: active
    - selecting cells using cellZones (component_3)
    - selected 180 cell(s) with volume 0.33440885
Selecting finite volume options type limitTemperature
    Source: limitT
    State: active
    - selecting all cells
    - selected 180 cell(s) with volume 0.33440885
*** Reading solid mesh thermophysical properties for region component_4

    Adding to thermos

Selecting thermodynamics package 
{
    type            heSolidThermo;
    mixture         pureMixture;
    transport       constIso;
    thermo          hConst;
    equationOfState rhoConst;
    specie          specie;
    energy          sensibleEnthalpy;
}

    Adding to radiations

Radiation model not active: radiationProperties not found
Selecting radiationModel none
    Adding fvOptions

Creating finite volume options from "system/fvOptions"

Selecting finite volume options type scalarSemiImplicitSource
    Source: v_CPU_AbsoluteEnergySource
    State: active
    - selecting cells using cellZones (component_4)
    - selected 166 cell(s) with volume 0.35308463
Selecting finite volume options type limitTemperature
    Source: limitT
    State: active
    - selecting all cells
    - selected 166 cell(s) with volume 0.35308463
Create fvMatrixAssembly.
--> FOAM Warning : 

    failed lookup of region0 (objectRegistry case_28)
    available objects of type objectRegistry:
7(component_3 component_0 component_1 fluid pcb component_4 component_2)


    From const Type& Foam::objectRegistry::lookupObject(const Foam::word&, bool) const [with Type = Foam::objectRegistry]
    in file db/objectRegistry/objectRegistryTemplates.C at line 628.
--> loading function object 'limitT'

Time = 1


Solving for fluid region fluid
DILUPBiCGStab:  Solving for Ux, Initial residual = 1, Final residual = 0.038274438, No Iterations 2
DILUPBiCGStab:  Solving for Uy, Initial residual = 1, Final residual = 0.011111619, No Iterations 3

Solving energy coupled regions
Creating lduPrimitiveAssembly: lduAssembly456789
DILUPBiCGStab:  Solving for h, Initial residual = 0.010559899, Final residual = 0.00015592655, No Iterations 1
limitTemperature=limitT, Type=Lower, LimitedCells=0, CellsPercent=0, Tmin=250, UnlimitedTmin=300
limitTemperature=limitT, Type=Upper, LimitedCells=0, CellsPercent=0, Tmax=6000, UnlimitedTmax=300
limitTemperature=limitT, Type=Lower, LimitedCells=0, CellsPercent=0, Tmin=250, UnlimitedTmin=300
limitTemperature=limitT, Type=Upper, LimitedCells=0, CellsPercent=0, Tmax=6000, UnlimitedTmax=300
limitTemperature=limitT, Type=Lower, LimitedCells=0, CellsPercent=0, Tmin=250, UnlimitedTmin=300
limitTemperature=limitT, Type=Upper, LimitedCells=0, CellsPercent=0, Tmax=6000, UnlimitedTmax=300
limitTemperature=limitT, Type=Lower, LimitedCells=0, CellsPercent=0, Tmin=250, UnlimitedTmin=300
limitTemperature=limitT, Type=Upper, LimitedCells=0, CellsPercent=0, Tmax=6000, UnlimitedTmax=300
limitTemperature=limitT, Type=Lower, LimitedCells=0, CellsPercent=0, Tmin=250, UnlimitedTmin=300
limitTemperature=limitT, Type=Upper, LimitedCells=0, CellsPercent=0, Tmax=6000, UnlimitedTmax=300
limitTemperature=limitT, Type=Lower, LimitedCells=0, CellsPercent=0, Tmin=250, UnlimitedTmin=300
limitTemperature=limitT, Type=Upper, LimitedCells=0, CellsPercent=0, Tmax=6000, UnlimitedTmax=300
limitTemperature=limitT, Type=Lower, LimitedCells=0, CellsPercent=0, Tmin=250, UnlimitedTmin=300
limitTemperature=limitT, Type=Upper, LimitedCells=0, CellsPercent=0, Tmax=6000, UnlimitedTmax=300
DICPBiCGStab:  Solving for p_rgh, Initial residual = 1, Final residual = 0.098108601, No Iterations 108
time step continuity errors : sum local = 0.017333307, global = -0.0012716347, cumulative = -0.0012716347
Min/max rho:1.1766493 1.1766956
DILUPBiCGStab:  Solving for epsilon, Initial residual = 0.83703319, Final residual = 0.0015378658, No Iterations 1
DILUPBiCGStab:  Solving for k, Initial residual = 1, Final residual = 0.018777204, No Iterations 1
ExecutionTime = 0.32 s  ClockTime = 1 s

volFieldValue fluid write:
    volAverage(fluid) of T = 299.99996

volFieldValue pcb write:
    volAverage(pcb) of T = 300.01336

volFieldValue component_0 write:
    volAverage(component_0) of T = 300.34645

volFieldValue component_1 write:
    volAverage(component_1) of T = 300.2545

volFieldValue component_2 write:
    volAverage(component_2) of T = 302.19025

volFieldValue component_3 write:
    volAverage(component_3) of T = 300.80201

volFieldValue component_4 write:
    volAverage(component_4) of T = 302.03873

Time = 2


Solving for fluid region fluid
DILUPBiCGStab:  Solving for Ux, Initial residual = 0.72221199, Final residual = 0.016799399, No Iterations 2
DILUPBiCGStab:  Solving for Uy, Initial residual = 0.56320132, Final residual = 0.012956846, No Iterations 2

Solving energy coupled regions
Using lduPrimitiveAssembly: lduAssembly456789
DILUPBiCGStab:  Solving for h, Initial residual = 0.010436236, Final residual = 0.00013001793, No Iterations 1
limitTemperature=limitT, Type=Lower, LimitedCells=0, CellsPercent=0, Tmin=250, UnlimitedTmin=299.97952
limitTemperature=limitT, Type=Upper, LimitedCells=0, CellsPercent=0, Tmax=6000, UnlimitedTmax=300.00312
limitTemperature=limitT, Type=Lower, LimitedCells=0, CellsPercent=0, Tmin=250, UnlimitedTmin=299.99192
limitTemperature=limitT, Type=Upper, LimitedCells=0, CellsPercent=0, Tmax=6000, UnlimitedTmax=300.11772
limitTemperature=limitT, Type=Lower, LimitedCells=0, CellsPercent=0, Tmin=250, UnlimitedTmin=300.24946
limitTemperature=limitT, Type=Upper, LimitedCells=0, CellsPercent=0, Tmax=6000, UnlimitedTmax=300.42348
limitTemperature=limitT, Type=Lower, LimitedCells=0, CellsPercent=0, Tmin=250, UnlimitedTmin=300.19914
limitTemperature=limitT, Type=Upper, LimitedCells=0, CellsPercent=0, Tmax=6000, UnlimitedTmax=300.29559
limitTemperature=limitT, Type=Lower, LimitedCells=0, CellsPercent=0, Tmin=250, UnlimitedTmin=301.26545
limitTemperature=limitT, Type=Upper, LimitedCells=0, CellsPercent=0, Tmax=6000, UnlimitedTmax=302.60479
limitTemperature=limitT, Type=Lower, LimitedCells=0, CellsPercent=0, Tmin=250, UnlimitedTmin=300.72177
limitTemperature=limitT, Type=Upper, LimitedCells=0, CellsPercent=0, Tmax=6000, UnlimitedTmax=301.00046
limitTemperature=limitT, Type=Lower, LimitedCells=0, CellsPercent=0, Tmin=250, UnlimitedTmin=301.47874
limitTemperature=limitT, Type=Upper, LimitedCells=0, CellsPercent=0, Tmax=6000, UnlimitedTmax=302.41723
DICPBiCGStab:  Solving for p_rgh, Initial residual = 0.11750694, Final residual = 0.0080752661, No Iterations 84
time step continuity errors : sum local = 0.012146383, global = -0.0080077377, cumulative = -0.0092793724
Min/max rho:1.1719257 1.1769351
DILUPBiCGStab:  Solving for epsilon, Initial residual = 0.81688034, Final residual = 0.0032330883, No Iterations 1
DILUPBiCGStab:  Solving for k, Initial residual = 0.85745555, Final residual = 0.021390919, No Iterations 1
ExecutionTime = 0.43 s  ClockTime = 1 s

volFieldValue fluid write:
    volAverage(fluid) of T = 300.00002

volFieldValue pcb write:
    volAverage(pcb) of T = 300.03876

volFieldValue component_0 write:
    volAverage(component_0) of T = 300.68422

volFieldValue component_1 write:
    volAverage(component_1) of T = 300.50653

volFieldValue component_2 write:
    volAverage(component_2) of T = 304.32749

volFieldValue component_3 write:
    volAverage(component_3) of T = 301.58902

volFieldValue component_4 write:
    volAverage(component_4) of T = 304.00998

Time = 3


Solving for fluid region fluid
DILUPBiCGStab:  Solving for Ux, Initial residual = 0.50486502, Final residual = 0.012273737, No Iterations 2
DILUPBiCGStab:  Solving for Uy, Initial residual = 0.34528795, Final residual = 0.014068701, No Iterations 2

Solving energy coupled regions
Using lduPrimitiveAssembly: lduAssembly456789
DILUPBiCGStab:  Solving for h, Initial residual = 0.0096850406, Final residual = 0.000156741, No Iterations 1
limitTemperature=limitT, Type=Lower, LimitedCells=0, CellsPercent=0, Tmin=250, UnlimitedTmin=299.98374
limitTemperature=limitT, Type=Upper, LimitedCells=0, CellsPercent=0, Tmax=6000, UnlimitedTmax=300.0479
limitTemperature=limitT, Type=Lower, LimitedCells=0, CellsPercent=0, Tmin=250, UnlimitedTmin=299.98581
limitTemperature=limitT, Type=Upper, LimitedCells=0, CellsPercent=0, Tmax=6000, UnlimitedTmax=300.33721
limitTemperature=limitT, Type=Lower, LimitedCells=0, CellsPercent=0, Tmin=250, UnlimitedTmin=300.53083
limitTemperature=limitT, Type=Upper, LimitedCells=0, CellsPercent=0, Tmax=6000, UnlimitedTmax=300.80881
limitTemperature=limitT, Type=Lower, LimitedCells=0, CellsPercent=0, Tmin=250, UnlimitedTmin=300.42453
limitTemperature=limitT, Type=Upper, LimitedCells=0, CellsPercent=0, Tmax=6000, UnlimitedTmax=300.5736
limitTemperature=limitT, Type=Lower, LimitedCells=0, CellsPercent=0, Tmin=250, UnlimitedTmin=302.6991
limitTemperature=limitT, Type=Upper, LimitedCells=0, CellsPercent=0, Tmax=6000, UnlimitedTmax=305.03264
limitTemperature=limitT, Type=Lower, LimitedCells=0, CellsPercent=0, Tmin=250, UnlimitedTmin=301.46573
limitTemperature=limitT, Type=Upper, LimitedCells=0, CellsPercent=0, Tmax=6000, UnlimitedTmax=301.88781
limitTemperature=limitT, Type=Lower, LimitedCells=0, CellsPercent=0, Tmin=250, UnlimitedTmin=303.10032
limitTemperature=limitT, Type=Upper, LimitedCells=0, CellsPercent=0, Tmax=6000, UnlimitedTmax=304.65117
DICPBiCGStab:  Solving for p_rgh, Initial residual = 0.10109682, Final residual = 0.0099636335, No Iterations 9
time step continuity errors : sum local = 0.023033893, global = -0.0030036092, cumulative = -0.012282982
Min/max rho:1.1651527 1.1772266
DILUPBiCGStab:  Solving for epsilon, Initial residual = 0.7482438, Final residual = 0.0054547672, No Iterations 1
DILUPBiCGStab:  Solving for k, Initial residual = 0.66300597, Final residual = 0.021343879, No Iterations 1
ExecutionTime = 0.5 s  ClockTime = 1 s

volFieldValue fluid write:
    volAverage(fluid) of T = 300.00039

volFieldValue pcb write:
    volAverage(pcb) of T = 300.07355

volFieldValue component_0 write:
    volAverage(component_0) of T = 300.98255

volFieldValue component_1 write:
    volAverage(component_1) of T = 300.74649

volFieldValue component_2 write:
    volAverage(component_2) of T = 306.17494

volFieldValue component_3 write:
    volAverage(component_3) of T = 302.25247

volFieldValue component_4 write:
    volAverage(component_4) of T = 305.45755

Time = 4


Solving for fluid region fluid
DILUPBiCGStab:  Solving for Ux, Initial residual = 0.32261332, Final residual = 0.0073656089, No Iterations 2
DILUPBiCGStab:  Solving for Uy, Initial residual = 0.19652144, Final residual = 0.0046900608, No Iterations 2

Solving energy coupled regions
Using lduPrimitiveAssembly: lduAssembly456789
DILUPBiCGStab:  Solving for h, Initial residual = 0.009546433, Final residual = 0.00018512451, No Iterations 1
limitTemperature=limitT, Type=Lower, LimitedCells=0, CellsPercent=0, Tmin=250, UnlimitedTmin=299.98892
limitTemperature=limitT, Type=Upper, LimitedCells=0, CellsPercent=0, Tmax=6000, UnlimitedTmax=300.18567
limitTemperature=limitT, Type=Lower, LimitedCells=0, CellsPercent=0, Tmin=250, UnlimitedTmin=299.98757
limitTemperature=limitT, Type=Upper, LimitedCells=0, CellsPercent=0, Tmax=6000, UnlimitedTmax=300.6332
limitTemperature=limitT, Type=Lower, LimitedCells=0, CellsPercent=0, Tmin=250, UnlimitedTmin=300.77344
limitTemperature=limitT, Type=Upper, LimitedCells=0, CellsPercent=0, Tmax=6000, UnlimitedTmax=301.16949
limitTemperature=limitT, Type=Lower, LimitedCells=0, CellsPercent=0, Tmin=250, UnlimitedTmin=300.6327
limitTemperature=limitT, Type=Upper, LimitedCells=0, CellsPercent=0, Tmax=6000, UnlimitedTmax=300.8401
limitTemperature=limitT, Type=Lower, LimitedCells=0, CellsPercent=0, Tmin=250, UnlimitedTmin=304.00482
limitTemperature=limitT, Type=Upper, LimitedCells=0, CellsPercent=0, Tmax=6000, UnlimitedTmax=307.32943
limitTemperature=limitT, Type=Lower, LimitedCells=0, CellsPercent=0, Tmin=250, UnlimitedTmin=301.79656
limitTemperature=limitT, Type=Upper, LimitedCells=0, CellsPercent=0, Tmax=6000, UnlimitedTmax=302.52264
limitTemperature=limitT, Type=Lower, LimitedCells=0, CellsPercent=0, Tmin=250, UnlimitedTmin=302.28812
limitTemperature=limitT, Type=Upper, LimitedCells=0, CellsPercent=0, Tmax=6000, UnlimitedTmax=306.75061
DICPBiCGStab:  Solving for p_rgh, Initial residual = 0.14848749, Final residual = 0.014696405, No Iterations 13
time step continuity errors : sum local = 0.034543815, global = 0.000426353, cumulative = -0.011856629
Min/max rho:1.1586887 1.1773644
DILUPBiCGStab:  Solving for epsilon, Initial residual = 0.59965525, Final residual = 0.0078336102, No Iterations 1
DILUPBiCGStab:  Solving for k, Initial residual = 0.50325675, Final residual = 0.020008764, No Iterations 1
ExecutionTime = 0.53 s  ClockTime = 1 s

volFieldValue fluid write:
    volAverage(fluid) of T = 300.00105

volFieldValue pcb write:
    volAverage(pcb) of T = 300.11718

volFieldValue component_0 write:
    volAverage(component_0) of T = 301.25452

volFieldValue component_1 write:
    volAverage(component_1) of T = 300.97739

volFieldValue component_2 write:
    volAverage(component_2) of T = 307.83908

volFieldValue component_3 write:
    volAverage(component_3) of T = 302.83381

volFieldValue component_4 write:
    volAverage(component_4) of T = 306.53441

Time = 5


Solving for fluid region fluid
DILUPBiCGStab:  Solving for Ux, Initial residual = 0.22486904, Final residual = 0.005213108, No Iterations 2
DILUPBiCGStab:  Solving for Uy, Initial residual = 0.10944747, Final residual = 0.0037290746, No Iterations 2

Solving energy coupled regions
Using lduPrimitiveAssembly: lduAssembly456789
DILUPBiCGStab:  Solving for h, Initial residual = 0.0088420257, Final residual = 0.00016284741, No Iterations 1
limitTemperature=limitT, Type=Lower, LimitedCells=0, CellsPercent=0, Tmin=250, UnlimitedTmin=299.99137
limitTemperature=limitT, Type=Upper, LimitedCells=0, CellsPercent=0, Tmax=6000, UnlimitedTmax=300.61118
limitTemperature=limitT, Type=Lower, LimitedCells=0, CellsPercent=0, Tmin=250, UnlimitedTmin=299.98967
limitTemperature=limitT, Type=Upper, LimitedCells=0, CellsPercent=0, Tmax=6000, UnlimitedTmax=300.99851
limitTemperature=limitT, Type=Lower, LimitedCells=0, CellsPercent=0, Tmin=250, UnlimitedTmin=300.93543
limitTemperature=limitT, Type=Upper, LimitedCells=0, CellsPercent=0, Tmax=6000, UnlimitedTmax=301.5148
limitTemperature=limitT, Type=Lower, LimitedCells=0, CellsPercent=0, Tmin=250, UnlimitedTmin=300.82739
limitTemperature=limitT, Type=Upper, LimitedCells=0, CellsPercent=0, Tmax=6000, UnlimitedTmax=301.09778
limitTemperature=limitT, Type=Lower, LimitedCells=0, CellsPercent=0, Tmin=250, UnlimitedTmin=305.22187
limitTemperature=limitT, Type=Upper, LimitedCells=0, CellsPercent=0, Tmax=6000, UnlimitedTmax=309.5247
limitTemperature=limitT, Type=Lower, LimitedCells=0, CellsPercent=0, Tmin=250, UnlimitedTmin=301.52766
limitTemperature=limitT, Type=Upper, LimitedCells=0, CellsPercent=0, Tmax=6000, UnlimitedTmax=303.29218
limitTemperature=limitT, Type=Lower, LimitedCells=0, CellsPercent=0, Tmin=250, UnlimitedTmin=299.94249
limitTemperature=limitT, Type=Upper, LimitedCells=0, CellsPercent=0, Tmax=6000, UnlimitedTmax=308.71698
DICPBiCGStab:  Solving for p_rgh, Initial residual = 0.17151538, Final residual = 0.014872865, No Iterations 53
time step continuity errors : sum local = 0.034946754, global = 0.033120608, cumulative = 0.021263979
Min/max rho:1.1530304 1.1774388
DILUPBiCGStab:  Solving for epsilon, Initial residual = 0.37643733, Final residual = 0.0070784316, No Iterations 1
DILUPBiCGStab:  Solving for k, Initial residual = 0.38348175, Final residual = 0.017122114, No Iterations 1
ExecutionTime = 0.64 s  ClockTime = 1 s

volFieldValue fluid write:
    volAverage(fluid) of T = 300.00162

volFieldValue pcb write:
    volAverage(pcb) of T = 300.16818

volFieldValue component_0 write:
    volAverage(component_0) of T = 301.51423

volFieldValue component_1 write:
    volAverage(component_1) of T = 301.20301

volFieldValue component_2 write:
    volAverage(component_2) of T = 309.42096

volFieldValue component_3 write:
    volAverage(component_3) of T = 303.39338

volFieldValue component_4 write:
    volAverage(component_4) of T = 307.62813

Time = 6


Solving for fluid region fluid
DILUPBiCGStab:  Solving for Ux, Initial residual = 0.15476877, Final residual = 0.0033324446, No Iterations 2
DILUPBiCGStab:  Solving for Uy, Initial residual = 0.074208022, Final residual = 0.0024871061, No Iterations 2

Solving energy coupled regions
Using lduPrimitiveAssembly: lduAssembly456789
DILUPBiCGStab:  Solving for h, Initial residual = 0.0087298179, Final residual = 0.00015330109, No Iterations 1
limitTemperature=limitT, Type=Lower, LimitedCells=0, CellsPercent=0, Tmin=250, UnlimitedTmin=299.99287
limitTemperature=limitT, Type=Upper, LimitedCells=0, CellsPercent=0, Tmax=6000, UnlimitedTmax=300.87398
limitTemperature=limitT, Type=Lower, LimitedCells=0, CellsPercent=0, Tmin=250, UnlimitedTmin=299.99212
limitTemperature=limitT, Type=Upper, LimitedCells=0, CellsPercent=0, Tmax=6000, UnlimitedTmax=301.42649
limitTemperature=limitT, Type=Lower, LimitedCells=0, CellsPercent=0, Tmin=250, UnlimitedTmin=301.04315
limitTemperature=limitT, Type=Upper, LimitedCells=0, CellsPercent=0, Tmax=6000, UnlimitedTmax=301.8464
limitTemperature=limitT, Type=Lower, LimitedCells=0, CellsPercent=0, Tmin=250, UnlimitedTmin=301.01666
limitTemperature=limitT, Type=Upper, LimitedCells=0, CellsPercent=0, Tmax=6000, UnlimitedTmax=301.34894
limitTemperature=limitT, Type=Lower, LimitedCells=0, CellsPercent=0, Tmin=250, UnlimitedTmin=306.09679
limitTemperature=limitT, Type=Upper, LimitedCells=0, CellsPercent=0, Tmax=6000, UnlimitedTmax=311.64445
limitTemperature=limitT, Type=Lower, LimitedCells=0, CellsPercent=0, Tmin=250, UnlimitedTmin=301.67775
limitTemperature=limitT, Type=Upper, LimitedCells=0, CellsPercent=0, Tmax=6000, UnlimitedTmax=304.04188
limitTemperature=limitT, Type=Lower, LimitedCells=0, CellsPercent=0, Tmin=250, UnlimitedTmin=300.46661
limitTemperature=limitT, Type=Upper, LimitedCells=0, CellsPercent=0, Tmax=6000, UnlimitedTmax=310.55537
DICPBiCGStab:  Solving for p_rgh, Initial residual = 0.19435075, Final residual = 0.019329283, No Iterations 75
time step continuity errors : sum local = 0.036102174, global = 0.01578332, cumulative = 0.037047299
Min/max rho:1.1475589 1.177369
DILUPBiCGStab:  Solving for epsilon, Initial residual = 0.23360178, Final residual = 0.0052819527, No Iterations 1
DILUPBiCGStab:  Solving for k, Initial residual = 0.29865136, Final residual = 0.013337943, No Iterations 1
ExecutionTime = 0.74 s  ClockTime = 1 s

volFieldValue fluid write:
    volAverage(fluid) of T = 300.00219

volFieldValue pcb write:
    volAverage(pcb) of T = 300.22612

volFieldValue component_0 write:
    volAverage(component_0) of T = 301.76588

volFieldValue component_1 write:
    volAverage(component_1) of T = 301.42406

volFieldValue component_2 write:
    volAverage(component_2) of T = 310.93707

volFieldValue component_3 write:
    volAverage(component_3) of T = 303.94736

volFieldValue component_4 write:
    volAverage(component_4) of T = 308.86303

Time = 7


Solving for fluid region fluid
DILUPBiCGStab:  Solving for Ux, Initial residual = 0.11470645, Final residual = 0.0027668905, No Iterations 2
DILUPBiCGStab:  Solving for Uy, Initial residual = 0.095325852, Final residual = 0.0019033489, No Iterations 2

Solving energy coupled regions
Using lduPrimitiveAssembly: lduAssembly456789
DILUPBiCGStab:  Solving for h, Initial residual = 0.0088218186, Final residual = 0.00015903231, No Iterations 1
limitTemperature=limitT, Type=Lower, LimitedCells=0, CellsPercent=0, Tmin=250, UnlimitedTmin=299.9955
limitTemperature=limitT, Type=Upper, LimitedCells=0, CellsPercent=0, Tmax=6000, UnlimitedTmax=301.0451
limitTemperature=limitT, Type=Lower, LimitedCells=0, CellsPercent=0, Tmin=250, UnlimitedTmin=299.99457
limitTemperature=limitT, Type=Upper, LimitedCells=0, CellsPercent=0, Tmax=6000, UnlimitedTmax=301.90898
limitTemperature=limitT, Type=Lower, LimitedCells=0, CellsPercent=0, Tmin=250, UnlimitedTmin=301.165
limitTemperature=limitT, Type=Upper, LimitedCells=0, CellsPercent=0, Tmax=6000, UnlimitedTmax=302.16369
limitTemperature=limitT, Type=Lower, LimitedCells=0, CellsPercent=0, Tmin=250, UnlimitedTmin=301.19415
limitTemperature=limitT, Type=Upper, LimitedCells=0, CellsPercent=0, Tmax=6000, UnlimitedTmax=301.59422
limitTemperature=limitT, Type=Lower, LimitedCells=0, CellsPercent=0, Tmin=250, UnlimitedTmin=307.08749
limitTemperature=limitT, Type=Upper, LimitedCells=0, CellsPercent=0, Tmax=6000, UnlimitedTmax=313.66984
limitTemperature=limitT, Type=Lower, LimitedCells=0, CellsPercent=0, Tmin=250, UnlimitedTmin=302.01309
limitTemperature=limitT, Type=Upper, LimitedCells=0, CellsPercent=0, Tmax=6000, UnlimitedTmax=304.77107
limitTemperature=limitT, Type=Lower, LimitedCells=0, CellsPercent=0, Tmin=250, UnlimitedTmin=303.38578
limitTemperature=limitT, Type=Upper, LimitedCells=0, CellsPercent=0, Tmax=6000, UnlimitedTmax=312.26571
DICPBiCGStab:  Solving for p_rgh, Initial residual = 0.36176918, Final residual = 0.016004252, No Iterations 65
time step continuity errors : sum local = 0.014241275, global = 0.0030632807, cumulative = 0.04011058
Min/max rho:1.1420327 1.1770764
DILUPBiCGStab:  Solving for epsilon, Initial residual = 0.15128768, Final residual = 0.0037950419, No Iterations 1
DILUPBiCGStab:  Solving for k, Initial residual = 0.23840185, Final residual = 0.010373179, No Iterations 1
ExecutionTime = 0.84 s  ClockTime = 1 s

volFieldValue fluid write:
    volAverage(fluid) of T = 300.00342

volFieldValue pcb write:
    volAverage(pcb) of T = 300.29212

volFieldValue component_0 write:
    volAverage(component_0) of T = 302.0112

volFieldValue component_1 write:
    volAverage(component_1) of T = 301.64091

volFieldValue component_2 write:
    volAverage(component_2) of T = 312.38971

volFieldValue component_3 write:
    volAverage(component_3) of T = 304.49608

volFieldValue component_4 write:
    volAverage(component_4) of T = 310.09907

Time = 8


Solving for fluid region fluid
DILUPBiCGStab:  Solving for Ux, Initial residual = 0.23535358, Final residual = 0.0062569768, No Iterations 2
DILUPBiCGStab:  Solving for Uy, Initial residual = 0.13380456, Final residual = 0.00048201916, No Iterations 3

Solving energy coupled regions
Using lduPrimitiveAssembly: lduAssembly456789
DILUPBiCGStab:  Solving for h, Initial residual = 0.0088461138, Final residual = 0.00015390311, No Iterations 1
limitTemperature=limitT, Type=Lower, LimitedCells=0, CellsPercent=0, Tmin=250, UnlimitedTmin=299.99465
limitTemperature=limitT, Type=Upper, LimitedCells=0, CellsPercent=0, Tmax=6000, UnlimitedTmax=301.87427
limitTemperature=limitT, Type=Lower, LimitedCells=0, CellsPercent=0, Tmin=250, UnlimitedTmin=299.99478
limitTemperature=limitT, Type=Upper, LimitedCells=0, CellsPercent=0, Tmax=6000, UnlimitedTmax=302.43964
limitTemperature=limitT, Type=Lower, LimitedCells=0, CellsPercent=0, Tmin=250, UnlimitedTmin=301.25673
limitTemperature=limitT, Type=Upper, LimitedCells=0, CellsPercent=0, Tmax=6000, UnlimitedTmax=302.46791
limitTemperature=limitT, Type=Lower, LimitedCells=0, CellsPercent=0, Tmin=250, UnlimitedTmin=301.33484
limitTemperature=limitT, Type=Upper, LimitedCells=0, CellsPercent=0, Tmax=6000, UnlimitedTmax=301.83749
limitTemperature=limitT, Type=Lower, LimitedCells=0, CellsPercent=0, Tmin=250, UnlimitedTmin=308.09465
limitTemperature=limitT, Type=Upper, LimitedCells=0, CellsPercent=0, Tmax=6000, UnlimitedTmax=315.60313
limitTemperature=limitT, Type=Lower, LimitedCells=0, CellsPercent=0, Tmin=250, UnlimitedTmin=302.22213
limitTemperature=limitT, Type=Upper, LimitedCells=0, CellsPercent=0, Tmax=6000, UnlimitedTmax=305.47991
limitTemperature=limitT, Type=Lower, LimitedCells=0, CellsPercent=0, Tmin=250, UnlimitedTmin=304.64722
limitTemperature=limitT, Type=Upper, LimitedCells=0, CellsPercent=0, Tmax=6000, UnlimitedTmax=313.8634
DICPBiCGStab:  Solving for p_rgh, Initial residual = 0.18030478, Final residual = 0.017818474, No Iterations 25
time step continuity errors : sum local = 0.029151184, global = 0.023148753, cumulative = 0.063259333
Min/max rho:1.1367049 1.1767164
DILUPBiCGStab:  Solving for epsilon, Initial residual = 0.098985041, Final residual = 0.0028605262, No Iterations 1
DILUPBiCGStab:  Solving for k, Initial residual = 0.19128833, Final residual = 0.0090695803, No Iterations 1
ExecutionTime = 0.93 s  ClockTime = 1 s

volFieldValue fluid write:
    volAverage(fluid) of T = 300.00405

volFieldValue pcb write:
    volAverage(pcb) of T = 300.36354

volFieldValue component_0 write:
    volAverage(component_0) of T = 302.25076

volFieldValue component_1 write:
    volAverage(component_1) of T = 301.85407

volFieldValue component_2 write:
    volAverage(component_2) of T = 313.79851

volFieldValue component_3 write:
    volAverage(component_3) of T = 305.02553

volFieldValue component_4 write:
    volAverage(component_4) of T = 311.15731

Time = 9


Solving for fluid region fluid
DILUPBiCGStab:  Solving for Ux, Initial residual = 0.23715422, Final residual = 0.0060215963, No Iterations 2
DILUPBiCGStab:  Solving for Uy, Initial residual = 0.12814477, Final residual = 0.0019272461, No Iterations 2

Solving energy coupled regions
Using lduPrimitiveAssembly: lduAssembly456789
DILUPBiCGStab:  Solving for h, Initial residual = 0.0086175851, Final residual = 0.00015366157, No Iterations 1
limitTemperature=limitT, Type=Lower, LimitedCells=0, CellsPercent=0, Tmin=250, UnlimitedTmin=299.99389
limitTemperature=limitT, Type=Upper, LimitedCells=0, CellsPercent=0, Tmax=6000, UnlimitedTmax=301.6764
limitTemperature=limitT, Type=Lower, LimitedCells=0, CellsPercent=0, Tmin=250, UnlimitedTmin=299.99445
limitTemperature=limitT, Type=Upper, LimitedCells=0, CellsPercent=0, Tmax=6000, UnlimitedTmax=303.01131
limitTemperature=limitT, Type=Lower, LimitedCells=0, CellsPercent=0, Tmin=250, UnlimitedTmin=301.32466
limitTemperature=limitT, Type=Upper, LimitedCells=0, CellsPercent=0, Tmax=6000, UnlimitedTmax=302.76009
limitTemperature=limitT, Type=Lower, LimitedCells=0, CellsPercent=0, Tmin=250, UnlimitedTmin=301.46357
limitTemperature=limitT, Type=Upper, LimitedCells=0, CellsPercent=0, Tmax=6000, UnlimitedTmax=302.07857
limitTemperature=limitT, Type=Lower, LimitedCells=0, CellsPercent=0, Tmin=250, UnlimitedTmin=308.80768
limitTemperature=limitT, Type=Upper, LimitedCells=0, CellsPercent=0, Tmax=6000, UnlimitedTmax=317.44547
limitTemperature=limitT, Type=Lower, LimitedCells=0, CellsPercent=0, Tmin=250, UnlimitedTmin=302.30333
limitTemperature=limitT, Type=Upper, LimitedCells=0, CellsPercent=0, Tmax=6000, UnlimitedTmax=306.16787
limitTemperature=limitT, Type=Lower, LimitedCells=0, CellsPercent=0, Tmin=250, UnlimitedTmin=302.80295
limitTemperature=limitT, Type=Upper, LimitedCells=0, CellsPercent=0, Tmax=6000, UnlimitedTmax=315.3611
DICPBiCGStab:  Solving for p_rgh, Initial residual = 0.21997073, Final residual = 0.021917999, No Iterations 20
time step continuity errors : sum local = 0.035772936, global = 0.019167374, cumulative = 0.082426707
Min/max rho:1.1317899 1.1766788
DILUPBiCGStab:  Solving for epsilon, Initial residual = 0.073431669, Final residual = 0.0022967771, No Iterations 1
DILUPBiCGStab:  Solving for k, Initial residual = 0.16848927, Final residual = 0.0077200057, No Iterations 1
ExecutionTime = 1.01 s  ClockTime = 1 s

volFieldValue fluid write:
    volAverage(fluid) of T = 300.00483

volFieldValue pcb write:
    volAverage(pcb) of T = 300.43988

volFieldValue component_0 write:
    volAverage(component_0) of T = 302.48808

volFieldValue component_1 write:
    volAverage(component_1) of T = 302.06464

volFieldValue component_2 write:
    volAverage(component_2) of T = 315.16211

volFieldValue component_3 write:
    volAverage(component_3) of T = 305.53946

volFieldValue component_4 write:
    volAverage(component_4) of T = 312.07088

Time = 10


Solving for fluid region fluid
DILUPBiCGStab:  Solving for Ux, Initial residual = 0.24497164, Final residual = 0.0061747691, No Iterations 2
DILUPBiCGStab:  Solving for Uy, Initial residual = 0.10893123, Final residual = 0.0029118445, No Iterations 2

Solving energy coupled regions
Using lduPrimitiveAssembly: lduAssembly456789
DILUPBiCGStab:  Solving for h, Initial residual = 0.0085552098, Final residual = 0.00015161104, No Iterations 1
limitTemperature=limitT, Type=Lower, LimitedCells=0, CellsPercent=0, Tmin=250, UnlimitedTmin=299.9936
limitTemperature=limitT, Type=Upper, LimitedCells=0, CellsPercent=0, Tmax=6000, UnlimitedTmax=301.63493
limitTemperature=limitT, Type=Lower, LimitedCells=0, CellsPercent=0, Tmin=250, UnlimitedTmin=299.99454
limitTemperature=limitT, Type=Upper, LimitedCells=0, CellsPercent=0, Tmax=6000, UnlimitedTmax=303.61867
limitTemperature=limitT, Type=Lower, LimitedCells=0, CellsPercent=0, Tmin=250, UnlimitedTmin=301.39086
limitTemperature=limitT, Type=Upper, LimitedCells=0, CellsPercent=0, Tmax=6000, UnlimitedTmax=303.04137
limitTemperature=limitT, Type=Lower, LimitedCells=0, CellsPercent=0, Tmin=250, UnlimitedTmin=301.60129
limitTemperature=limitT, Type=Upper, LimitedCells=0, CellsPercent=0, Tmax=6000, UnlimitedTmax=302.31546
limitTemperature=limitT, Type=Lower, LimitedCells=0, CellsPercent=0, Tmin=250, UnlimitedTmin=309.48359
limitTemperature=limitT, Type=Upper, LimitedCells=0, CellsPercent=0, Tmax=6000, UnlimitedTmax=319.204
limitTemperature=limitT, Type=Lower, LimitedCells=0, CellsPercent=0, Tmin=250, UnlimitedTmin=302.3961
limitTemperature=limitT, Type=Upper, LimitedCells=0, CellsPercent=0, Tmax=6000, UnlimitedTmax=306.83633
limitTemperature=limitT, Type=Lower, LimitedCells=0, CellsPercent=0, Tmin=250, UnlimitedTmin=301.12497
limitTemperature=limitT, Type=Upper, LimitedCells=0, CellsPercent=0, Tmax=6000, UnlimitedTmax=316.76855
DICPBiCGStab:  Solving for p_rgh, Initial residual = 0.24588121, Final residual = 0.024005378, No Iterations 21
time step continuity errors : sum local = 0.042151085, global = 0.0079079241, cumulative = 0.090334631
Min/max rho:1.127131 1.1766686
DILUPBiCGStab:  Solving for epsilon, Initial residual = 0.055807461, Final residual = 0.0019928764, No Iterations 1
DILUPBiCGStab:  Solving for k, Initial residual = 0.14853125, Final residual = 0.0020059066, No Iterations 2
ExecutionTime = 1.05 s  ClockTime = 1 s

volFieldValue fluid write:
    volAverage(fluid) of T = 300.00575

volFieldValue pcb write:
    volAverage(pcb) of T = 300.52128

volFieldValue component_0 write:
    volAverage(component_0) of T = 302.72211

volFieldValue component_1 write:
    volAverage(component_1) of T = 302.27205

volFieldValue component_2 write:
    volAverage(component_2) of T = 316.48702

volFieldValue component_3 write:
    volAverage(component_3) of T = 306.04279

volFieldValue component_4 write:
    volAverage(component_4) of T = 312.96713

Time = 11


Solving for fluid region fluid
DILUPBiCGStab:  Solving for Ux, Initial residual = 0.25155986, Final residual = 0.0064978846, No Iterations 2
DILUPBiCGStab:  Solving for Uy, Initial residual = 0.085206905, Final residual = 0.0024394893, No Iterations 2

Solving energy coupled regions
Using lduPrimitiveAssembly: lduAssembly456789
DILUPBiCGStab:  Solving for h, Initial residual = 0.0086849762, Final residual = 0.00015422545, No Iterations 1
limitTemperature=limitT, Type=Lower, LimitedCells=0, CellsPercent=0, Tmin=250, UnlimitedTmin=299.99336
limitTemperature=limitT, Type=Upper, LimitedCells=0, CellsPercent=0, Tmax=6000, UnlimitedTmax=301.62889
limitTemperature=limitT, Type=Lower, LimitedCells=0, CellsPercent=0, Tmin=250, UnlimitedTmin=299.99484
limitTemperature=limitT, Type=Upper, LimitedCells=0, CellsPercent=0, Tmax=6000, UnlimitedTmax=304.25733
limitTemperature=limitT, Type=Lower, LimitedCells=0, CellsPercent=0, Tmin=250, UnlimitedTmin=301.47282
limitTemperature=limitT, Type=Upper, LimitedCells=0, CellsPercent=0, Tmax=6000, UnlimitedTmax=303.31586
limitTemperature=limitT, Type=Lower, LimitedCells=0, CellsPercent=0, Tmin=250, UnlimitedTmin=301.74222
limitTemperature=limitT, Type=Upper, LimitedCells=0, CellsPercent=0, Tmax=6000, UnlimitedTmax=302.54859
limitTemperature=limitT, Type=Lower, LimitedCells=0, CellsPercent=0, Tmin=250, UnlimitedTmin=310.21952
limitTemperature=limitT, Type=Upper, LimitedCells=0, CellsPercent=0, Tmax=6000, UnlimitedTmax=320.88746
limitTemperature=limitT, Type=Lower, LimitedCells=0, CellsPercent=0, Tmin=250, UnlimitedTmin=302.57068
limitTemperature=limitT, Type=Upper, LimitedCells=0, CellsPercent=0, Tmax=6000, UnlimitedTmax=307.48692
limitTemperature=limitT, Type=Lower, LimitedCells=0, CellsPercent=0, Tmin=250, UnlimitedTmin=302.17924
limitTemperature=limitT, Type=Upper, LimitedCells=0, CellsPercent=0, Tmax=6000, UnlimitedTmax=318.09059
DICPBiCGStab:  Solving for p_rgh, Initial residual = 0.23351825, Final residual = 0.023064027, No Iterations 29
time step continuity errors : sum local = 0.043197478, global = -0.0062490659, cumulative = 0.084085565
Min/max rho:1.1224566 1.1766581
DILUPBiCGStab:  Solving for epsilon, Initial residual = 0.043362337, Final residual = 0.0016879469, No Iterations 1
DILUPBiCGStab:  Solving for k, Initial residual = 0.12885934, Final residual = 0.00202416, No Iterations 2
ExecutionTime = 1.14 s  ClockTime = 1 s

volFieldValue fluid write:
    volAverage(fluid) of T = 300.00682

volFieldValue pcb write:
    volAverage(pcb) of T = 300.60694

volFieldValue component_0 write:
    volAverage(component_0) of T = 302.94659

volFieldValue component_1 write:
    volAverage(component_1) of T = 302.47715

volFieldValue component_2 write:
    volAverage(component_2) of T = 317.77699

volFieldValue component_3 write:
    volAverage(component_3) of T = 306.54053

volFieldValue component_4 write:
    volAverage(component_4) of T = 313.87591

Time = 12


Solving for fluid region fluid
DILUPBiCGStab:  Solving for Ux, Initial residual = 0.25747854, Final residual = 0.0057757674, No Iterations 2
DILUPBiCGStab:  Solving for Uy, Initial residual = 0.092762018, Final residual = 0.0023536271, No Iterations 2

Solving energy coupled regions
Using lduPrimitiveAssembly: lduAssembly456789
DILUPBiCGStab:  Solving for h, Initial residual = 0.0087677232, Final residual = 0.00015680223, No Iterations 1
limitTemperature=limitT, Type=Lower, LimitedCells=0, CellsPercent=0, Tmin=250, UnlimitedTmin=299.99252
limitTemperature=limitT, Type=Upper, LimitedCells=0, CellsPercent=0, Tmax=6000, UnlimitedTmax=302.02777
limitTemperature=limitT, Type=Lower, LimitedCells=0, CellsPercent=0, Tmin=250, UnlimitedTmin=299.99486
limitTemperature=limitT, Type=Upper, LimitedCells=0, CellsPercent=0, Tmax=6000, UnlimitedTmax=304.92235
limitTemperature=limitT, Type=Lower, LimitedCells=0, CellsPercent=0, Tmin=250, UnlimitedTmin=301.57896
limitTemperature=limitT, Type=Upper, LimitedCells=0, CellsPercent=0, Tmax=6000, UnlimitedTmax=303.58305
limitTemperature=limitT, Type=Lower, LimitedCells=0, CellsPercent=0, Tmin=250, UnlimitedTmin=301.89434
limitTemperature=limitT, Type=Upper, LimitedCells=0, CellsPercent=0, Tmax=6000, UnlimitedTmax=302.77831
limitTemperature=limitT, Type=Lower, LimitedCells=0, CellsPercent=0, Tmin=250, UnlimitedTmin=310.99967
limitTemperature=limitT, Type=Upper, LimitedCells=0, CellsPercent=0, Tmax=6000, UnlimitedTmax=322.49993
limitTemperature=limitT, Type=Lower, LimitedCells=0, CellsPercent=0, Tmin=250, UnlimitedTmin=302.77736
limitTemperature=limitT, Type=Upper, LimitedCells=0, CellsPercent=0, Tmax=6000, UnlimitedTmax=308.12068
limitTemperature=limitT, Type=Lower, LimitedCells=0, CellsPercent=0, Tmin=250, UnlimitedTmin=304.25218
limitTemperature=limitT, Type=Upper, LimitedCells=0, CellsPercent=0, Tmax=6000, UnlimitedTmax=319.34526
DICPBiCGStab:  Solving for p_rgh, Initial residual = 0.20812665, Final residual = 0.020047454, No Iterations 22
time step continuity errors : sum local = 0.040400942, global = -0.014123916, cumulative = 0.069961649
Min/max rho:1.1179556 1.1766559
DILUPBiCGStab:  Solving for epsilon, Initial residual = 0.034172548, Final residual = 0.0014160068, No Iterations 1
DILUPBiCGStab:  Solving for k, Initial residual = 0.11115536, Final residual = 0.0019773364, No Iterations 2
ExecutionTime = 1.23 s  ClockTime = 2 s

volFieldValue fluid write:
    volAverage(fluid) of T = 300.00816

volFieldValue pcb write:
    volAverage(pcb) of T = 300.69622

volFieldValue component_0 write:
    volAverage(component_0) of T = 303.16239

volFieldValue component_1 write:
    volAverage(component_1) of T = 302.67947

volFieldValue component_2 write:
    volAverage(component_2) of T = 319.03934

volFieldValue component_3 write:
    volAverage(component_3) of T = 307.03827

volFieldValue component_4 write:
    volAverage(component_4) of T = 314.76195

Time = 13


Solving for fluid region fluid
DILUPBiCGStab:  Solving for Ux, Initial residual = 0.26881645, Final residual = 0.007007286, No Iterations 2
DILUPBiCGStab:  Solving for Uy, Initial residual = 0.10495482, Final residual = 0.003276442, No Iterations 2

Solving energy coupled regions
Using lduPrimitiveAssembly: lduAssembly456789
DILUPBiCGStab:  Solving for h, Initial residual = 0.0088279142, Final residual = 0.00016257841, No Iterations 1
limitTemperature=limitT, Type=Lower, LimitedCells=0, CellsPercent=0, Tmin=250, UnlimitedTmin=299.99337
limitTemperature=limitT, Type=Upper, LimitedCells=0, CellsPercent=0, Tmax=6000, UnlimitedTmax=302.19025
limitTemperature=limitT, Type=Lower, LimitedCells=0, CellsPercent=0, Tmin=250, UnlimitedTmin=299.9958
limitTemperature=limitT, Type=Upper, LimitedCells=0, CellsPercent=0, Tmax=6000, UnlimitedTmax=305.61058
limitTemperature=limitT, Type=Lower, LimitedCells=0, CellsPercent=0, Tmin=250, UnlimitedTmin=301.70082
limitTemperature=limitT, Type=Upper, LimitedCells=0, CellsPercent=0, Tmax=6000, UnlimitedTmax=303.84326
limitTemperature=limitT, Type=Lower, LimitedCells=0, CellsPercent=0, Tmin=250, UnlimitedTmin=302.03928
limitTemperature=limitT, Type=Upper, LimitedCells=0, CellsPercent=0, Tmax=6000, UnlimitedTmax=303.00487
limitTemperature=limitT, Type=Lower, LimitedCells=0, CellsPercent=0, Tmin=250, UnlimitedTmin=311.83662
limitTemperature=limitT, Type=Upper, LimitedCells=0, CellsPercent=0, Tmax=6000, UnlimitedTmax=324.0463
limitTemperature=limitT, Type=Lower, LimitedCells=0, CellsPercent=0, Tmin=250, UnlimitedTmin=302.96738
limitTemperature=limitT, Type=Upper, LimitedCells=0, CellsPercent=0, Tmax=6000, UnlimitedTmax=308.73921
limitTemperature=limitT, Type=Lower, LimitedCells=0, CellsPercent=0, Tmin=250, UnlimitedTmin=304.58721
limitTemperature=limitT, Type=Upper, LimitedCells=0, CellsPercent=0, Tmax=6000, UnlimitedTmax=320.539
DICPBiCGStab:  Solving for p_rgh, Initial residual = 0.16440828, Final residual = 0.016294755, No Iterations 35
time step continuity errors : sum local = 0.034247235, global = -0.025753992, cumulative = 0.044207657
Min/max rho:1.1136675 1.1766531
DILUPBiCGStab:  Solving for epsilon, Initial residual = 0.027729122, Final residual = 0.0011805922, No Iterations 1
DILUPBiCGStab:  Solving for k, Initial residual = 0.095325741, Final residual = 0.0018900674, No Iterations 2
ExecutionTime = 1.32 s  ClockTime = 2 s

volFieldValue fluid write:
    volAverage(fluid) of T = 300.00917

volFieldValue pcb write:
    volAverage(pcb) of T = 300.78887

volFieldValue component_0 write:
    volAverage(component_0) of T = 303.37336

volFieldValue component_1 write:
    volAverage(component_1) of T = 302.8799

volFieldValue component_2 write:
    volAverage(component_2) of T = 320.24996

volFieldValue component_3 write:
    volAverage(component_3) of T = 307.5269

volFieldValue component_4 write:
    volAverage(component_4) of T = 315.58165

Time = 14


Solving for fluid region fluid
DILUPBiCGStab:  Solving for Ux, Initial residual = 0.27910006, Final residual = 0.0058899748, No Iterations 2
DILUPBiCGStab:  Solving for Uy, Initial residual = 0.11728927, Final residual = 0.0030446167, No Iterations 2

Solving energy coupled regions
Using lduPrimitiveAssembly: lduAssembly456789
DILUPBiCGStab:  Solving for h, Initial residual = 0.0088000296, Final residual = 0.00016655552, No Iterations 1
limitTemperature=limitT, Type=Lower, LimitedCells=0, CellsPercent=0, Tmin=250, UnlimitedTmin=299.99313
limitTemperature=limitT, Type=Upper, LimitedCells=0, CellsPercent=0, Tmax=6000, UnlimitedTmax=302.36888
limitTemperature=limitT, Type=Lower, LimitedCells=0, CellsPercent=0, Tmin=250, UnlimitedTmin=299.99476
limitTemperature=limitT, Type=Upper, LimitedCells=0, CellsPercent=0, Tmax=6000, UnlimitedTmax=306.318
limitTemperature=limitT, Type=Lower, LimitedCells=0, CellsPercent=0, Tmin=250, UnlimitedTmin=301.82993
limitTemperature=limitT, Type=Upper, LimitedCells=0, CellsPercent=0, Tmax=6000, UnlimitedTmax=304.09656
limitTemperature=limitT, Type=Lower, LimitedCells=0, CellsPercent=0, Tmin=250, UnlimitedTmin=302.18072
limitTemperature=limitT, Type=Upper, LimitedCells=0, CellsPercent=0, Tmax=6000, UnlimitedTmax=303.22826
limitTemperature=limitT, Type=Lower, LimitedCells=0, CellsPercent=0, Tmin=250, UnlimitedTmin=312.71258
limitTemperature=limitT, Type=Upper, LimitedCells=0, CellsPercent=0, Tmax=6000, UnlimitedTmax=325.53596
limitTemperature=limitT, Type=Lower, LimitedCells=0, CellsPercent=0, Tmin=250, UnlimitedTmin=303.13848
limitTemperature=limitT, Type=Upper, LimitedCells=0, CellsPercent=0, Tmax=6000, UnlimitedTmax=309.34325
limitTemperature=limitT, Type=Lower, LimitedCells=0, CellsPercent=0, Tmin=250, UnlimitedTmin=303.29886
limitTemperature=limitT, Type=Upper, LimitedCells=0, CellsPercent=0, Tmax=6000, UnlimitedTmax=321.67119
DICPBiCGStab:  Solving for p_rgh, Initial residual = 0.13946311, Final residual = 0.013800679, No Iterations 68
time step continuity errors : sum local = 0.028758442, global = -0.012452982, cumulative = 0.031754675
Min/max rho:1.1096186 1.1766531
DILUPBiCGStab:  Solving for epsilon, Initial residual = 0.022726659, Final residual = 0.0010632749, No Iterations 1
DILUPBiCGStab:  Solving for k, Initial residual = 0.080935298, Final residual = 0.0016982912, No Iterations 2
ExecutionTime = 1.43 s  ClockTime = 2 s

volFieldValue fluid write:
    volAverage(fluid) of T = 300.01004

volFieldValue pcb write:
    volAverage(pcb) of T = 300.8845

volFieldValue component_0 write:
    volAverage(component_0) of T = 303.58283

volFieldValue component_1 write:
    volAverage(component_1) of T = 303.07846

volFieldValue component_2 write:
    volAverage(component_2) of T = 321.41053

volFieldValue component_3 write:
    volAverage(component_3) of T = 308.00472

volFieldValue component_4 write:
    volAverage(component_4) of T = 316.36632

Time = 15


Solving for fluid region fluid
DILUPBiCGStab:  Solving for Ux, Initial residual = 0.20752968, Final residual = 0.0051268561, No Iterations 2
DILUPBiCGStab:  Solving for Uy, Initial residual = 0.12845249, Final residual = 0.0031161109, No Iterations 2

Solving energy coupled regions
Using lduPrimitiveAssembly: lduAssembly456789
DILUPBiCGStab:  Solving for h, Initial residual = 0.0087817362, Final residual = 0.00018256484, No Iterations 1
limitTemperature=limitT, Type=Lower, LimitedCells=0, CellsPercent=0, Tmin=250, UnlimitedTmin=299.99342
limitTemperature=limitT, Type=Upper, LimitedCells=0, CellsPercent=0, Tmax=6000, UnlimitedTmax=302.46826
limitTemperature=limitT, Type=Lower, LimitedCells=0, CellsPercent=0, Tmin=250, UnlimitedTmin=299.99442
limitTemperature=limitT, Type=Upper, LimitedCells=0, CellsPercent=0, Tmax=6000, UnlimitedTmax=307.04221
limitTemperature=limitT, Type=Lower, LimitedCells=0, CellsPercent=0, Tmin=250, UnlimitedTmin=301.96291
limitTemperature=limitT, Type=Upper, LimitedCells=0, CellsPercent=0, Tmax=6000, UnlimitedTmax=304.34463
limitTemperature=limitT, Type=Lower, LimitedCells=0, CellsPercent=0, Tmin=250, UnlimitedTmin=302.32412
limitTemperature=limitT, Type=Upper, LimitedCells=0, CellsPercent=0, Tmax=6000, UnlimitedTmax=303.44895
limitTemperature=limitT, Type=Lower, LimitedCells=0, CellsPercent=0, Tmin=250, UnlimitedTmin=313.48187
limitTemperature=limitT, Type=Upper, LimitedCells=0, CellsPercent=0, Tmax=6000, UnlimitedTmax=326.97269
limitTemperature=limitT, Type=Lower, LimitedCells=0, CellsPercent=0, Tmin=250, UnlimitedTmin=303.26129
limitTemperature=limitT, Type=Upper, LimitedCells=0, CellsPercent=0, Tmax=6000, UnlimitedTmax=309.93471
limitTemperature=limitT, Type=Lower, LimitedCells=0, CellsPercent=0, Tmin=250, UnlimitedTmin=302.59482
limitTemperature=limitT, Type=Upper, LimitedCells=0, CellsPercent=0, Tmax=6000, UnlimitedTmax=322.74893
DICPBiCGStab:  Solving for p_rgh, Initial residual = 0.65295919, Final residual = 0.065040349, No Iterations 85
time step continuity errors : sum local = 0.030713283, global = -0.027654411, cumulative = 0.0041002635
Min/max rho:1.1059339 1.1766531
DILUPBiCGStab:  Solving for epsilon, Initial residual = 0.018599411, Final residual = 0.00085491409, No Iterations 1
DILUPBiCGStab:  Solving for k, Initial residual = 0.071734442, Final residual = 0.0013362231, No Iterations 2
ExecutionTime = 1.54 s  ClockTime = 2 s

volFieldValue fluid write:
    volAverage(fluid) of T = 300.01091

volFieldValue pcb write:
    volAverage(pcb) of T = 300.98237

volFieldValue component_0 write:
    volAverage(component_0) of T = 303.79127

volFieldValue component_1 write:
    volAverage(component_1) of T = 303.2756

volFieldValue component_2 write:
    volAverage(component_2) of T = 322.52088

volFieldValue component_3 write:
    volAverage(component_3) of T = 308.46445

volFieldValue component_4 write:
    volAverage(component_4) of T = 317.15132

Time = 16


Solving for fluid region fluid
DILUPBiCGStab:  Solving for Ux, Initial residual = 0.16028855, Final residual = 0.0037789211, No Iterations 2
DILUPBiCGStab:  Solving for Uy, Initial residual = 0.10577447, Final residual = 0.0035391284, No Iterations 2

Solving energy coupled regions
Using lduPrimitiveAssembly: lduAssembly456789
DILUPBiCGStab:  Solving for h, Initial residual = 0.0087961953, Final residual = 0.00017158511, No Iterations 1
limitTemperature=limitT, Type=Lower, LimitedCells=0, CellsPercent=0, Tmin=250, UnlimitedTmin=299.99679
limitTemperature=limitT, Type=Upper, LimitedCells=0, CellsPercent=0, Tmax=6000, UnlimitedTmax=302.72496
limitTemperature=limitT, Type=Lower, LimitedCells=0, CellsPercent=0, Tmin=250, UnlimitedTmin=299.99656
limitTemperature=limitT, Type=Upper, LimitedCells=0, CellsPercent=0, Tmax=6000, UnlimitedTmax=307.78226
limitTemperature=limitT, Type=Lower, LimitedCells=0, CellsPercent=0, Tmin=250, UnlimitedTmin=302.10666
limitTemperature=limitT, Type=Upper, LimitedCells=0, CellsPercent=0, Tmax=6000, UnlimitedTmax=304.59049
limitTemperature=limitT, Type=Lower, LimitedCells=0, CellsPercent=0, Tmin=250, UnlimitedTmin=302.46287
limitTemperature=limitT, Type=Upper, LimitedCells=0, CellsPercent=0, Tmax=6000, UnlimitedTmax=303.66695
limitTemperature=limitT, Type=Lower, LimitedCells=0, CellsPercent=0, Tmin=250, UnlimitedTmin=314.10485
limitTemperature=limitT, Type=Upper, LimitedCells=0, CellsPercent=0, Tmax=6000, UnlimitedTmax=328.35683
limitTemperature=limitT, Type=Lower, LimitedCells=0, CellsPercent=0, Tmin=250, UnlimitedTmin=303.34598
limitTemperature=limitT, Type=Upper, LimitedCells=0, CellsPercent=0, Tmax=6000, UnlimitedTmax=310.51385
limitTemperature=limitT, Type=Lower, LimitedCells=0, CellsPercent=0, Tmin=250, UnlimitedTmin=303.54873
limitTemperature=limitT, Type=Upper, LimitedCells=0, CellsPercent=0, Tmax=6000, UnlimitedTmax=323.77883
DICPBiCGStab:  Solving for p_rgh, Initial residual = 0.30583322, Final residual = 0.030424595, No Iterations 38
time step continuity errors : sum local = 0.031684104, global = -0.029186571, cumulative = -0.025086307
Min/max rho:1.1021575 1.1768364
DILUPBiCGStab:  Solving for epsilon, Initial residual = 0.015910607, Final residual = 0.00074080004, No Iterations 1
DILUPBiCGStab:  Solving for k, Initial residual = 0.062308225, Final residual = 0.0012090617, No Iterations 2
ExecutionTime = 1.63 s  ClockTime = 2 s

volFieldValue fluid write:
    volAverage(fluid) of T = 300.01203

volFieldValue pcb write:
    volAverage(pcb) of T = 301.08402

volFieldValue component_0 write:
    volAverage(component_0) of T = 303.99104

volFieldValue component_1 write:
    volAverage(component_1) of T = 303.46925

volFieldValue component_2 write:
    volAverage(component_2) of T = 323.62886

volFieldValue component_3 write:
    volAverage(component_3) of T = 308.91424

volFieldValue component_4 write:
    volAverage(component_4) of T = 317.92878

Time = 17


Solving for fluid region fluid
DILUPBiCGStab:  Solving for Ux, Initial residual = 0.10992017, Final residual = 0.0026162509, No Iterations 2
DILUPBiCGStab:  Solving for Uy, Initial residual = 0.074651375, Final residual = 0.003430837, No Iterations 2

Solving energy coupled regions
Using lduPrimitiveAssembly: lduAssembly456789
DILUPBiCGStab:  Solving for h, Initial residual = 0.0086612609, Final residual = 0.00016899298, No Iterations 1
limitTemperature=limitT, Type=Lower, LimitedCells=0, CellsPercent=0, Tmin=250, UnlimitedTmin=299.99681
limitTemperature=limitT, Type=Upper, LimitedCells=0, CellsPercent=0, Tmax=6000, UnlimitedTmax=302.60933
limitTemperature=limitT, Type=Lower, LimitedCells=0, CellsPercent=0, Tmin=250, UnlimitedTmin=299.99875
limitTemperature=limitT, Type=Upper, LimitedCells=0, CellsPercent=0, Tmax=6000, UnlimitedTmax=308.5317
limitTemperature=limitT, Type=Lower, LimitedCells=0, CellsPercent=0, Tmin=250, UnlimitedTmin=302.24184
limitTemperature=limitT, Type=Upper, LimitedCells=0, CellsPercent=0, Tmax=6000, UnlimitedTmax=304.83351
limitTemperature=limitT, Type=Lower, LimitedCells=0, CellsPercent=0, Tmin=250, UnlimitedTmin=302.5613
limitTemperature=limitT, Type=Upper, LimitedCells=0, CellsPercent=0, Tmax=6000, UnlimitedTmax=303.88286
limitTemperature=limitT, Type=Lower, LimitedCells=0, CellsPercent=0, Tmin=250, UnlimitedTmin=314.35757
limitTemperature=limitT, Type=Upper, LimitedCells=0, CellsPercent=0, Tmax=6000, UnlimitedTmax=329.6927
limitTemperature=limitT, Type=Lower, LimitedCells=0, CellsPercent=0, Tmin=250, UnlimitedTmin=303.38232
limitTemperature=limitT, Type=Upper, LimitedCells=0, CellsPercent=0, Tmax=6000, UnlimitedTmax=311.08281
limitTemperature=limitT, Type=Lower, LimitedCells=0, CellsPercent=0, Tmin=250, UnlimitedTmin=304.67288
limitTemperature=limitT, Type=Upper, LimitedCells=0, CellsPercent=0, Tmax=6000, UnlimitedTmax=324.78098
DICPBiCGStab:  Solving for p_rgh, Initial residual = 0.26764885, Final residual = 0.026708815, No Iterations 28
time step continuity errors : sum local = 0.031375812, global = -0.025501513, cumulative = -0.05058782
Min/max rho:1.098346 1.1769251
DILUPBiCGStab:  Solving for epsilon, Initial residual = 0.013508186, Final residual = 0.00063151187, No Iterations 1
DILUPBiCGStab:  Solving for k, Initial residual = 0.053577797, Final residual = 0.00075009457, No Iterations 2
ExecutionTime = 1.71 s  ClockTime = 2 s

volFieldValue fluid write:
    volAverage(fluid) of T = 300.01301

volFieldValue pcb write:
    volAverage(pcb) of T = 301.18901

volFieldValue component_0 write:
    volAverage(component_0) of T = 304.18116

volFieldValue component_1 write:
    volAverage(component_1) of T = 303.65979

volFieldValue component_2 write:
    volAverage(component_2) of T = 324.67999

volFieldValue component_3 write:
    volAverage(component_3) of T = 309.34821

volFieldValue component_4 write:
    volAverage(component_4) of T = 318.67225

Time = 18


Solving for fluid region fluid
DILUPBiCGStab:  Solving for Ux, Initial residual = 0.097672391, Final residual = 0.0020778156, No Iterations 2
DILUPBiCGStab:  Solving for Uy, Initial residual = 0.06526689, Final residual = 0.0017236036, No Iterations 2

Solving energy coupled regions
Using lduPrimitiveAssembly: lduAssembly456789
DILUPBiCGStab:  Solving for h, Initial residual = 0.0083954797, Final residual = 0.00017150522, No Iterations 1
limitTemperature=limitT, Type=Lower, LimitedCells=0, CellsPercent=0, Tmin=250, UnlimitedTmin=299.99678
limitTemperature=limitT, Type=Upper, LimitedCells=0, CellsPercent=0, Tmax=6000, UnlimitedTmax=303.05762
limitTemperature=limitT, Type=Lower, LimitedCells=0, CellsPercent=0, Tmin=250, UnlimitedTmin=299.99908
limitTemperature=limitT, Type=Upper, LimitedCells=0, CellsPercent=0, Tmax=6000, UnlimitedTmax=309.29122
limitTemperature=limitT, Type=Lower, LimitedCells=0, CellsPercent=0, Tmin=250, UnlimitedTmin=302.19746
limitTemperature=limitT, Type=Upper, LimitedCells=0, CellsPercent=0, Tmax=6000, UnlimitedTmax=305.07443
limitTemperature=limitT, Type=Lower, LimitedCells=0, CellsPercent=0, Tmin=250, UnlimitedTmin=302.64658
limitTemperature=limitT, Type=Upper, LimitedCells=0, CellsPercent=0, Tmax=6000, UnlimitedTmax=304.09672
limitTemperature=limitT, Type=Lower, LimitedCells=0, CellsPercent=0, Tmin=250, UnlimitedTmin=314.42639
limitTemperature=limitT, Type=Upper, LimitedCells=0, CellsPercent=0, Tmax=6000, UnlimitedTmax=330.98595
limitTemperature=limitT, Type=Lower, LimitedCells=0, CellsPercent=0, Tmin=250, UnlimitedTmin=303.39443
limitTemperature=limitT, Type=Upper, LimitedCells=0, CellsPercent=0, Tmax=6000, UnlimitedTmax=311.64119
limitTemperature=limitT, Type=Lower, LimitedCells=0, CellsPercent=0, Tmin=250, UnlimitedTmin=304.7304
limitTemperature=limitT, Type=Upper, LimitedCells=0, CellsPercent=0, Tmax=6000, UnlimitedTmax=325.78185
DICPBiCGStab:  Solving for p_rgh, Initial residual = 0.22296135, Final residual = 0.021705652, No Iterations 29
time step continuity errors : sum local = 0.028971693, global = -0.016910606, cumulative = -0.067498427
Min/max rho:1.0945328 1.176951
DILUPBiCGStab:  Solving for epsilon, Initial residual = 0.011298575, Final residual = 0.00055717935, No Iterations 1
DILUPBiCGStab:  Solving for k, Initial residual = 0.046785037, Final residual = 0.00080409181, No Iterations 2
ExecutionTime = 1.81 s  ClockTime = 2 s

volFieldValue fluid write:
    volAverage(fluid) of T = 300.01445

volFieldValue pcb write:
    volAverage(pcb) of T = 301.29614

volFieldValue component_0 write:
    volAverage(component_0) of T = 304.36746

volFieldValue component_1 write:
    volAverage(component_1) of T = 303.84601

volFieldValue component_2 write:
    volAverage(component_2) of T = 325.6471

volFieldValue component_3 write:
    volAverage(component_3) of T = 309.76919

volFieldValue component_4 write:
    volAverage(component_4) of T = 319.38619

Time = 19


Solving for fluid region fluid
DILUPBiCGStab:  Solving for Ux, Initial residual = 0.12885243, Final residual = 0.003154031, No Iterations 2
DILUPBiCGStab:  Solving for Uy, Initial residual = 0.073233623, Final residual = 0.0018829421, No Iterations 2

Solving energy coupled regions
Using lduPrimitiveAssembly: lduAssembly456789
DILUPBiCGStab:  Solving for h, Initial residual = 0.0082327566, Final residual = 0.00017902622, No Iterations 1
limitTemperature=limitT, Type=Lower, LimitedCells=0, CellsPercent=0, Tmin=250, UnlimitedTmin=299.99674
limitTemperature=limitT, Type=Upper, LimitedCells=0, CellsPercent=0, Tmax=6000, UnlimitedTmax=303.01633
limitTemperature=limitT, Type=Lower, LimitedCells=0, CellsPercent=0, Tmin=250, UnlimitedTmin=299.99826
limitTemperature=limitT, Type=Upper, LimitedCells=0, CellsPercent=0, Tmax=6000, UnlimitedTmax=310.05668
limitTemperature=limitT, Type=Lower, LimitedCells=0, CellsPercent=0, Tmin=250, UnlimitedTmin=302.25694
limitTemperature=limitT, Type=Upper, LimitedCells=0, CellsPercent=0, Tmax=6000, UnlimitedTmax=305.31044
limitTemperature=limitT, Type=Lower, LimitedCells=0, CellsPercent=0, Tmin=250, UnlimitedTmin=302.72487
limitTemperature=limitT, Type=Upper, LimitedCells=0, CellsPercent=0, Tmax=6000, UnlimitedTmax=304.30833
limitTemperature=limitT, Type=Lower, LimitedCells=0, CellsPercent=0, Tmin=250, UnlimitedTmin=314.44935
limitTemperature=limitT, Type=Upper, LimitedCells=0, CellsPercent=0, Tmax=6000, UnlimitedTmax=332.2362
limitTemperature=limitT, Type=Lower, LimitedCells=0, CellsPercent=0, Tmin=250, UnlimitedTmin=303.40651
limitTemperature=limitT, Type=Upper, LimitedCells=0, CellsPercent=0, Tmax=6000, UnlimitedTmax=312.18838
limitTemperature=limitT, Type=Lower, LimitedCells=0, CellsPercent=0, Tmin=250, UnlimitedTmin=304.15146
limitTemperature=limitT, Type=Upper, LimitedCells=0, CellsPercent=0, Tmax=6000, UnlimitedTmax=326.77111
DICPBiCGStab:  Solving for p_rgh, Initial residual = 0.19611567, Final residual = 0.012013723, No Iterations 39
time step continuity errors : sum local = 0.016610519, global = -0.0092164181, cumulative = -0.076714845
Min/max rho:1.0906937 1.1769356
DILUPBiCGStab:  Solving for epsilon, Initial residual = 0.0095819458, Final residual = 0.00011235805, No Iterations 2
DILUPBiCGStab:  Solving for k, Initial residual = 0.040201007, Final residual = 0.00078975242, No Iterations 2
ExecutionTime = 1.9 s  ClockTime = 2 s

volFieldValue fluid write:
    volAverage(fluid) of T = 300.01712

volFieldValue pcb write:
    volAverage(pcb) of T = 301.40645

volFieldValue component_0 write:
    volAverage(component_0) of T = 304.5493

volFieldValue component_1 write:
    volAverage(component_1) of T = 304.02852

volFieldValue component_2 write:
    volAverage(component_2) of T = 326.52519

volFieldValue component_3 write:
    volAverage(component_3) of T = 310.18143

volFieldValue component_4 write:
    volAverage(component_4) of T = 320.10358

Time = 20


Solving for fluid region fluid
DILUPBiCGStab:  Solving for Ux, Initial residual = 0.16759776, Final residual = 0.0037304633, No Iterations 2
DILUPBiCGStab:  Solving for Uy, Initial residual = 0.072709406, Final residual = 0.0019197009, No Iterations 2

Solving energy coupled regions
Using lduPrimitiveAssembly: lduAssembly456789
DILUPBiCGStab:  Solving for h, Initial residual = 0.0080257883, Final residual = 0.00017156436, No Iterations 1
limitTemperature=limitT, Type=Lower, LimitedCells=0, CellsPercent=0, Tmin=250, UnlimitedTmin=299.99622
limitTemperature=limitT, Type=Upper, LimitedCells=0, CellsPercent=0, Tmax=6000, UnlimitedTmax=305.11718
limitTemperature=limitT, Type=Lower, LimitedCells=0, CellsPercent=0, Tmin=250, UnlimitedTmin=299.99727
limitTemperature=limitT, Type=Upper, LimitedCells=0, CellsPercent=0, Tmax=6000, UnlimitedTmax=310.82733
limitTemperature=limitT, Type=Lower, LimitedCells=0, CellsPercent=0, Tmin=250, UnlimitedTmin=302.41474
limitTemperature=limitT, Type=Upper, LimitedCells=0, CellsPercent=0, Tmax=6000, UnlimitedTmax=305.54075
limitTemperature=limitT, Type=Lower, LimitedCells=0, CellsPercent=0, Tmin=250, UnlimitedTmin=302.79993
limitTemperature=limitT, Type=Upper, LimitedCells=0, CellsPercent=0, Tmax=6000, UnlimitedTmax=304.51765
limitTemperature=limitT, Type=Lower, LimitedCells=0, CellsPercent=0, Tmin=250, UnlimitedTmin=314.44337
limitTemperature=limitT, Type=Upper, LimitedCells=0, CellsPercent=0, Tmax=6000, UnlimitedTmax=333.44079
limitTemperature=limitT, Type=Lower, LimitedCells=0, CellsPercent=0, Tmin=250, UnlimitedTmin=303.41269
limitTemperature=limitT, Type=Upper, LimitedCells=0, CellsPercent=0, Tmax=6000, UnlimitedTmax=312.72331
limitTemperature=limitT, Type=Lower, LimitedCells=0, CellsPercent=0, Tmin=250, UnlimitedTmin=304.06941
limitTemperature=limitT, Type=Upper, LimitedCells=0, CellsPercent=0, Tmax=6000, UnlimitedTmax=327.73612
DICPBiCGStab:  Solving for p_rgh, Initial residual = 0.18582317, Final residual = 0.018059829, No Iterations 8
time step continuity errors : sum local = 0.025081203, global = -0.00046213456, cumulative = -0.077176979
Min/max rho:1.0868483 1.1769161
DILUPBiCGStab:  Solving for epsilon, Initial residual = 0.008443816, Final residual = 0.00011175091, No Iterations 2
DILUPBiCGStab:  Solving for k, Initial residual = 0.036943737, Final residual = 0.00057006516, No Iterations 2
ExecutionTime = 1.93 s  ClockTime = 2 s

volFieldValue fluid write:
    volAverage(fluid) of T = 300.01826

volFieldValue pcb write:
    volAverage(pcb) of T = 301.51835

volFieldValue component_0 write:
    volAverage(component_0) of T = 304.73177

volFieldValue component_1 write:
    volAverage(component_1) of T = 304.21016

volFieldValue component_2 write:
    volAverage(component_2) of T = 327.33364

volFieldValue component_3 write:
    volAverage(component_3) of T = 310.56441

volFieldValue component_4 write:
    volAverage(component_4) of T = 320.78609

Time = 21


Solving for fluid region fluid
DILUPBiCGStab:  Solving for Ux, Initial residual = 0.16971916, Final residual = 0.0038682173, No Iterations 2
DILUPBiCGStab:  Solving for Uy, Initial residual = 0.065266218, Final residual = 0.0016841967, No Iterations 2

Solving energy coupled regions
Using lduPrimitiveAssembly: lduAssembly456789
DILUPBiCGStab:  Solving for h, Initial residual = 0.0078957724, Final residual = 0.00021107994, No Iterations 1
limitTemperature=limitT, Type=Lower, LimitedCells=0, CellsPercent=0, Tmin=250, UnlimitedTmin=299.99575
limitTemperature=limitT, Type=Upper, LimitedCells=0, CellsPercent=0, Tmax=6000, UnlimitedTmax=304.60719
limitTemperature=limitT, Type=Lower, LimitedCells=0, CellsPercent=0, Tmin=250, UnlimitedTmin=299.99648
limitTemperature=limitT, Type=Upper, LimitedCells=0, CellsPercent=0, Tmax=6000, UnlimitedTmax=311.6019
limitTemperature=limitT, Type=Lower, LimitedCells=0, CellsPercent=0, Tmin=250, UnlimitedTmin=302.56126
limitTemperature=limitT, Type=Upper, LimitedCells=0, CellsPercent=0, Tmax=6000, UnlimitedTmax=305.76757
limitTemperature=limitT, Type=Lower, LimitedCells=0, CellsPercent=0, Tmin=250, UnlimitedTmin=302.89339
limitTemperature=limitT, Type=Upper, LimitedCells=0, CellsPercent=0, Tmax=6000, UnlimitedTmax=304.7255
limitTemperature=limitT, Type=Lower, LimitedCells=0, CellsPercent=0, Tmin=250, UnlimitedTmin=314.39762
limitTemperature=limitT, Type=Upper, LimitedCells=0, CellsPercent=0, Tmax=6000, UnlimitedTmax=334.59616
limitTemperature=limitT, Type=Lower, LimitedCells=0, CellsPercent=0, Tmin=250, UnlimitedTmin=303.36921
limitTemperature=limitT, Type=Upper, LimitedCells=0, CellsPercent=0, Tmax=6000, UnlimitedTmax=313.2478
limitTemperature=limitT, Type=Lower, LimitedCells=0, CellsPercent=0, Tmin=250, UnlimitedTmin=304.62663
limitTemperature=limitT, Type=Upper, LimitedCells=0, CellsPercent=0, Tmax=6000, UnlimitedTmax=328.67154
DICPBiCGStab:  Solving for p_rgh, Initial residual = 0.21312257, Final residual = 0.020961454, No Iterations 16
time step continuity errors : sum local = 0.028447671, global = 0.014695311, cumulative = -0.062481669
Min/max rho:1.0829426 1.1769151
DILUPBiCGStab:  Solving for epsilon, Initial residual = 0.0077181018, Final residual = 0.00037702214, No Iterations 1
DILUPBiCGStab:  Solving for k, Initial residual = 0.035692189, Final residual = 0.00075034925, No Iterations 2
ExecutionTime = 2.01 s  ClockTime = 2 s

volFieldValue fluid write:
    volAverage(fluid) of T = 300.01946

volFieldValue pcb write:
    volAverage(pcb) of T = 301.63226

volFieldValue component_0 write:
    volAverage(component_0) of T = 304.91098

volFieldValue component_1 write:
    volAverage(component_1) of T = 304.39001

volFieldValue component_2 write:
    volAverage(component_2) of T = 328.08219

volFieldValue component_3 write:
    volAverage(component_3) of T = 310.92226

volFieldValue component_4 write:
    volAverage(component_4) of T = 321.40964

Time = 22


Solving for fluid region fluid
DILUPBiCGStab:  Solving for Ux, Initial residual = 0.15626269, Final residual = 0.003211096, No Iterations 2
DILUPBiCGStab:  Solving for Uy, Initial residual = 0.058587962, Final residual = 0.0029269013, No Iterations 2

Solving energy coupled regions
Using lduPrimitiveAssembly: lduAssembly456789
DILUPBiCGStab:  Solving for h, Initial residual = 0.0077219575, Final residual = 0.00017950476, No Iterations 1
limitTemperature=limitT, Type=Lower, LimitedCells=0, CellsPercent=0, Tmin=250, UnlimitedTmin=299.99547
limitTemperature=limitT, Type=Upper, LimitedCells=0, CellsPercent=0, Tmax=6000, UnlimitedTmax=304.34206
limitTemperature=limitT, Type=Lower, LimitedCells=0, CellsPercent=0, Tmin=250, UnlimitedTmin=299.99611
limitTemperature=limitT, Type=Upper, LimitedCells=0, CellsPercent=0, Tmax=6000, UnlimitedTmax=312.38388
limitTemperature=limitT, Type=Lower, LimitedCells=0, CellsPercent=0, Tmin=250, UnlimitedTmin=302.60313
limitTemperature=limitT, Type=Upper, LimitedCells=0, CellsPercent=0, Tmax=6000, UnlimitedTmax=305.98774
limitTemperature=limitT, Type=Lower, LimitedCells=0, CellsPercent=0, Tmin=250, UnlimitedTmin=303.02265
limitTemperature=limitT, Type=Upper, LimitedCells=0, CellsPercent=0, Tmax=6000, UnlimitedTmax=304.9316
limitTemperature=limitT, Type=Lower, LimitedCells=0, CellsPercent=0, Tmin=250, UnlimitedTmin=314.34295
limitTemperature=limitT, Type=Upper, LimitedCells=0, CellsPercent=0, Tmax=6000, UnlimitedTmax=335.69761
limitTemperature=limitT, Type=Lower, LimitedCells=0, CellsPercent=0, Tmin=250, UnlimitedTmin=303.28058
limitTemperature=limitT, Type=Upper, LimitedCells=0, CellsPercent=0, Tmax=6000, UnlimitedTmax=313.75835
limitTemperature=limitT, Type=Lower, LimitedCells=0, CellsPercent=0, Tmin=250, UnlimitedTmin=305.17668
limitTemperature=limitT, Type=Upper, LimitedCells=0, CellsPercent=0, Tmax=6000, UnlimitedTmax=329.57345
DICPBiCGStab:  Solving for p_rgh, Initial residual = 0.22230451, Final residual = 0.021929985, No Iterations 30
time step continuity errors : sum local = 0.027827447, global = 0.015763948, cumulative = -0.04671772
Min/max rho:1.0790708 1.176929
DILUPBiCGStab:  Solving for epsilon, Initial residual = 0.0071908039, Final residual = 0.00034959395, No Iterations 1
DILUPBiCGStab:  Solving for k, Initial residual = 0.03346442, Final residual = 5.6801798e-05, No Iterations 3
ExecutionTime = 2.09 s  ClockTime = 2 s

volFieldValue fluid write:
    volAverage(fluid) of T = 300.02108

volFieldValue pcb write:
    volAverage(pcb) of T = 301.74606

volFieldValue component_0 write:
    volAverage(component_0) of T = 305.08305

volFieldValue component_1 write:
    volAverage(component_1) of T = 304.56733

volFieldValue component_2 write:
    volAverage(component_2) of T = 328.80228

volFieldValue component_3 write:
    volAverage(component_3) of T = 311.26269

volFieldValue component_4 write:
    volAverage(component_4) of T = 321.99692

Time = 23


Solving for fluid region fluid
DILUPBiCGStab:  Solving for Ux, Initial residual = 0.11027196, Final residual = 0.0035515207, No Iterations 2
DILUPBiCGStab:  Solving for Uy, Initial residual = 0.062978694, Final residual = 0.0011462428, No Iterations 3

Solving energy coupled regions
Using lduPrimitiveAssembly: lduAssembly456789
DILUPBiCGStab:  Solving for h, Initial residual = 0.0075248903, Final residual = 0.00016798788, No Iterations 1
limitTemperature=limitT, Type=Lower, LimitedCells=0, CellsPercent=0, Tmin=250, UnlimitedTmin=299.99517
limitTemperature=limitT, Type=Upper, LimitedCells=0, CellsPercent=0, Tmax=6000, UnlimitedTmax=304.34683
limitTemperature=limitT, Type=Lower, LimitedCells=0, CellsPercent=0, Tmin=250, UnlimitedTmin=299.996
limitTemperature=limitT, Type=Upper, LimitedCells=0, CellsPercent=0, Tmax=6000, UnlimitedTmax=313.157
limitTemperature=limitT, Type=Lower, LimitedCells=0, CellsPercent=0, Tmin=250, UnlimitedTmin=302.63785
limitTemperature=limitT, Type=Upper, LimitedCells=0, CellsPercent=0, Tmax=6000, UnlimitedTmax=306.20203
limitTemperature=limitT, Type=Lower, LimitedCells=0, CellsPercent=0, Tmin=250, UnlimitedTmin=303.13492
limitTemperature=limitT, Type=Upper, LimitedCells=0, CellsPercent=0, Tmax=6000, UnlimitedTmax=305.13482
limitTemperature=limitT, Type=Lower, LimitedCells=0, CellsPercent=0, Tmin=250, UnlimitedTmin=314.3176
limitTemperature=limitT, Type=Upper, LimitedCells=0, CellsPercent=0, Tmax=6000, UnlimitedTmax=336.7454
limitTemperature=limitT, Type=Lower, LimitedCells=0, CellsPercent=0, Tmin=250, UnlimitedTmin=303.18618
limitTemperature=limitT, Type=Upper, LimitedCells=0, CellsPercent=0, Tmax=6000, UnlimitedTmax=314.25555
limitTemperature=limitT, Type=Lower, LimitedCells=0, CellsPercent=0, Tmin=250, UnlimitedTmin=305.29884
limitTemperature=limitT, Type=Upper, LimitedCells=0, CellsPercent=0, Tmax=6000, UnlimitedTmax=330.44852
DICPBiCGStab:  Solving for p_rgh, Initial residual = 0.22787734, Final residual = 0.022485142, No Iterations 27
time step continuity errors : sum local = 0.026416696, global = 0.017680992, cumulative = -0.029036728
Min/max rho:1.0749758 1.1769176
DILUPBiCGStab:  Solving for epsilon, Initial residual = 0.006570039, Final residual = 7.6000071e-05, No Iterations 2
DILUPBiCGStab:  Solving for k, Initial residual = 0.030096811, Final residual = 0.00047528943, No Iterations 2
ExecutionTime = 2.13 s  ClockTime = 2 s

volFieldValue fluid write:
    volAverage(fluid) of T = 300.02251

volFieldValue pcb write:
    volAverage(pcb) of T = 301.8609

volFieldValue component_0 write:
    volAverage(component_0) of T = 305.24559

volFieldValue component_1 write:
    volAverage(component_1) of T = 304.74249

volFieldValue component_2 write:
    volAverage(component_2) of T = 329.49604

volFieldValue component_3 write:
    volAverage(component_3) of T = 311.58579

volFieldValue component_4 write:
    volAverage(component_4) of T = 322.54225

Time = 24


Solving for fluid region fluid
DILUPBiCGStab:  Solving for Ux, Initial residual = 0.091400186, Final residual = 0.0021534707, No Iterations 2
DILUPBiCGStab:  Solving for Uy, Initial residual = 0.073928497, Final residual = 0.0017940132, No Iterations 2

Solving energy coupled regions
Using lduPrimitiveAssembly: lduAssembly456789
DILUPBiCGStab:  Solving for h, Initial residual = 0.0074422947, Final residual = 0.00018159701, No Iterations 1
limitTemperature=limitT, Type=Lower, LimitedCells=0, CellsPercent=0, Tmin=250, UnlimitedTmin=299.99484
limitTemperature=limitT, Type=Upper, LimitedCells=0, CellsPercent=0, Tmax=6000, UnlimitedTmax=304.5628
limitTemperature=limitT, Type=Lower, LimitedCells=0, CellsPercent=0, Tmin=250, UnlimitedTmin=299.99591
limitTemperature=limitT, Type=Upper, LimitedCells=0, CellsPercent=0, Tmax=6000, UnlimitedTmax=313.926
limitTemperature=limitT, Type=Lower, LimitedCells=0, CellsPercent=0, Tmin=250, UnlimitedTmin=302.67692
limitTemperature=limitT, Type=Upper, LimitedCells=0, CellsPercent=0, Tmax=6000, UnlimitedTmax=306.41048
limitTemperature=limitT, Type=Lower, LimitedCells=0, CellsPercent=0, Tmin=250, UnlimitedTmin=303.20127
limitTemperature=limitT, Type=Upper, LimitedCells=0, CellsPercent=0, Tmax=6000, UnlimitedTmax=305.33635
limitTemperature=limitT, Type=Lower, LimitedCells=0, CellsPercent=0, Tmin=250, UnlimitedTmin=314.31488
limitTemperature=limitT, Type=Upper, LimitedCells=0, CellsPercent=0, Tmax=6000, UnlimitedTmax=337.74057
limitTemperature=limitT, Type=Lower, LimitedCells=0, CellsPercent=0, Tmin=250, UnlimitedTmin=303.11117
limitTemperature=limitT, Type=Upper, LimitedCells=0, CellsPercent=0, Tmax=6000, UnlimitedTmax=314.73813
limitTemperature=limitT, Type=Lower, LimitedCells=0, CellsPercent=0, Tmin=250, UnlimitedTmin=304.91466
limitTemperature=limitT, Type=Upper, LimitedCells=0, CellsPercent=0, Tmax=6000, UnlimitedTmax=331.29162
DICPBiCGStab:  Solving for p_rgh, Initial residual = 0.23727754, Final residual = 0.019957783, No Iterations 42
time step continuity errors : sum local = 0.020153331, global = 0.017192815, cumulative = -0.011843913
Min/max rho:1.0708574 1.1769213
DILUPBiCGStab:  Solving for epsilon, Initial residual = 0.0066044538, Final residual = 0.0003063245, No Iterations 1
DILUPBiCGStab:  Solving for k, Initial residual = 0.027976416, Final residual = 0.00077284753, No Iterations 2
ExecutionTime = 2.23 s  ClockTime = 3 s

volFieldValue fluid write:
    volAverage(fluid) of T = 300.02355

volFieldValue pcb write:
    volAverage(pcb) of T = 301.97626

volFieldValue component_0 write:
    volAverage(component_0) of T = 305.40375

volFieldValue component_1 write:
    volAverage(component_1) of T = 304.91507

volFieldValue component_2 write:
    volAverage(component_2) of T = 330.14154

volFieldValue component_3 write:
    volAverage(component_3) of T = 311.8927

volFieldValue component_4 write:
    volAverage(component_4) of T = 323.04634

Time = 25


Solving for fluid region fluid
DILUPBiCGStab:  Solving for Ux, Initial residual = 0.10699039, Final residual = 0.0026576697, No Iterations 2
DILUPBiCGStab:  Solving for Uy, Initial residual = 0.080614781, Final residual = 0.0019735945, No Iterations 2

Solving energy coupled regions
Using lduPrimitiveAssembly: lduAssembly456789
DILUPBiCGStab:  Solving for h, Initial residual = 0.0074099471, Final residual = 0.00019364846, No Iterations 1
limitTemperature=limitT, Type=Lower, LimitedCells=0, CellsPercent=0, Tmin=250, UnlimitedTmin=299.99435
limitTemperature=limitT, Type=Upper, LimitedCells=0, CellsPercent=0, Tmax=6000, UnlimitedTmax=304.83961
limitTemperature=limitT, Type=Lower, LimitedCells=0, CellsPercent=0, Tmin=250, UnlimitedTmin=299.99574
limitTemperature=limitT, Type=Upper, LimitedCells=0, CellsPercent=0, Tmax=6000, UnlimitedTmax=314.68905
limitTemperature=limitT, Type=Lower, LimitedCells=0, CellsPercent=0, Tmin=250, UnlimitedTmin=302.71871
[...]
ExecutionTime = 9.43 s  ClockTime = 10 s

volFieldValue fluid write:
    volAverage(fluid) of T = 777.27482

volFieldValue pcb write:
    volAverage(pcb) of T = 453.50091

volFieldValue component_0 write:
    volAverage(component_0) of T = 491.32724

volFieldValue component_1 write:
    volAverage(component_1) of T = 1313.6321

volFieldValue component_2 write:
    volAverage(component_2) of T = 526.78935

volFieldValue component_3 write:
    volAverage(component_3) of T = 799.61408

volFieldValue component_4 write:
    volAverage(component_4) of T = 447.07113

Time = 130


Solving for fluid region fluid
DILUPBiCGStab:  Solving for Ux, Initial residual = 0.3594447, Final residual = 0.01702882, No Iterations 2
DILUPBiCGStab:  Solving for Uy, Initial residual = 0.2323991, Final residual = 0.0076064964, No Iterations 2

Solving energy coupled regions
Using lduPrimitiveAssembly: lduAssembly456789
DILUPBiCGStab:  Solving for h, Initial residual = 0.99979698, Final residual = 0.020199906, No Iterations 9
limitTemperature=limitT, Type=Lower, LimitedCells=2038, CellsPercent=22.61, Tmin=250, UnlimitedTmin=250
limitTemperature=limitT, Type=Upper, LimitedCells=616, CellsPercent=6.83, Tmax=6000, UnlimitedTmax=6000
limitTemperature=limitT, Type=Lower, LimitedCells=232, CellsPercent=46.31, Tmin=250, UnlimitedTmin=250
limitTemperature=limitT, Type=Upper, LimitedCells=12, CellsPercent=2.4, Tmax=6000, UnlimitedTmax=6000
limitTemperature=limitT, Type=Lower, LimitedCells=84, CellsPercent=54.19, Tmin=250, UnlimitedTmin=250
limitTemperature=limitT, Type=Upper, LimitedCells=0, CellsPercent=0, Tmax=6000, UnlimitedTmax=2508.1508
limitTemperature=limitT, Type=Lower, LimitedCells=83, CellsPercent=50.92, Tmin=250, UnlimitedTmin=250
limitTemperature=limitT, Type=Upper, LimitedCells=44, CellsPercent=26.99, Tmax=6000, UnlimitedTmax=6000
limitTemperature=limitT, Type=Lower, LimitedCells=0, CellsPercent=0, Tmin=250, UnlimitedTmin=250
limitTemperature=limitT, Type=Upper, LimitedCells=22, CellsPercent=40, Tmax=6000, UnlimitedTmax=2812.8874
limitTemperature=limitT, Type=Lower, LimitedCells=180, CellsPercent=100, Tmin=250, UnlimitedTmin=250
limitTemperature=limitT, Type=Upper, LimitedCells=0, CellsPercent=0, Tmax=6000, UnlimitedTmax=6000
limitTemperature=limitT, Type=Lower, LimitedCells=99, CellsPercent=59.64, Tmin=250, UnlimitedTmin=250
limitTemperature=limitT, Type=Upper, LimitedCells=0, CellsPercent=0, Tmax=6000, UnlimitedTmax=6000
DICPBiCGStab:  Solving for p_rgh, Initial residual = 0.85736353, Final residual = 0.075719122, No Iterations 4
time step continuity errors : sum local = 90227.305, global = 0.91055978, cumulative = 3.3874198
Min/max rho:0.017737271 7570.1988
DILUPBiCGStab:  Solving for epsilon, Initial residual = 0.081022128, Final residual = 0.0010987222, No Iterations 1
bounding epsilon, min: -51463.574 max: 1803777.8 average: 1225.7271
DILUPBiCGStab:  Solving for k, Initial residual = 4.2639306e-06, Final residual = 8.8413215e-07, No Iterations 1
bounding k, min: -368.18708 max: 216954.4 average: 105.24763
ExecutionTime = 9.51 s  ClockTime = 10 s

volFieldValue fluid write:
    volAverage(fluid) of T = 704.31256

volFieldValue pcb write:
    volAverage(pcb) of T = 473.80477

volFieldValue component_0 write:
    volAverage(component_0) of T = 305.70731

volFieldValue component_1 write:
    volAverage(component_1) of T = 2201.5309

volFieldValue component_2 write:
    volAverage(component_2) of T = 3365.0212

volFieldValue component_3 write:
    volAverage(component_3) of T = 250

volFieldValue component_4 write:
    volAverage(component_4) of T = 279.99625

Time = 131


Solving for fluid region fluid
DILUPBiCGStab:  Solving for Ux, Initial residual = 0.59540719, Final residual = 0.014320317, No Iterations 1
DILUPBiCGStab:  Solving for Uy, Initial residual = 0.57479907, Final residual = 0.013540102, No Iterations 1

Solving energy coupled regions
Using lduPrimitiveAssembly: lduAssembly456789
DILUPBiCGStab:  Solving for h, Initial residual = 0.99999959, Final residual = 0.011176072, No Iterations 14
limitTemperature=limitT, Type=Lower, LimitedCells=2491, CellsPercent=27.63, Tmin=250, UnlimitedTmin=250
limitTemperature=limitT, Type=Upper, LimitedCells=1284, CellsPercent=14.24, Tmax=6000, UnlimitedTmax=6000
limitTemperature=limitT, Type=Lower, LimitedCells=235, CellsPercent=46.91, Tmin=250, UnlimitedTmin=250
limitTemperature=limitT, Type=Upper, LimitedCells=42, CellsPercent=8.38, Tmax=6000, UnlimitedTmax=6000
limitTemperature=limitT, Type=Lower, LimitedCells=84, CellsPercent=54.19, Tmin=250, UnlimitedTmin=250
limitTemperature=limitT, Type=Upper, LimitedCells=28, CellsPercent=18.06, Tmax=6000, UnlimitedTmax=495.63746
limitTemperature=limitT, Type=Lower, LimitedCells=94, CellsPercent=57.67, Tmin=250, UnlimitedTmin=250
limitTemperature=limitT, Type=Upper, LimitedCells=49, CellsPercent=30.06, Tmax=6000, UnlimitedTmax=6000
limitTemperature=limitT, Type=Lower, LimitedCells=0, CellsPercent=0, Tmin=250, UnlimitedTmin=483.20519
limitTemperature=limitT, Type=Upper, LimitedCells=36, CellsPercent=65.45, Tmax=6000, UnlimitedTmax=6000
limitTemperature=limitT, Type=Lower, LimitedCells=146, CellsPercent=81.11, Tmin=250, UnlimitedTmin=250
limitTemperature=limitT, Type=Upper, LimitedCells=34, CellsPercent=18.89, Tmax=6000, UnlimitedTmax=250
limitTemperature=limitT, Type=Lower, LimitedCells=111, CellsPercent=66.87, Tmin=250, UnlimitedTmin=250
limitTemperature=limitT, Type=Upper, LimitedCells=55, CellsPercent=33.13, Tmax=6000, UnlimitedTmax=345.94458
DICPBiCGStab:  Solving for p_rgh, Initial residual = 0.85943483, Final residual = 0.083758727, No Iterations 3
time step continuity errors : sum local = 415505.08, global = 1.3496941, cumulative = 4.737114
Min/max rho:0.0088686354 36921.219
DILUPBiCGStab:  Solving for epsilon, Initial residual = 0.050043836, Final residual = 0.001708592, No Iterations 2
bounding epsilon, min: -2437793.7 max: 1.2205476e+08 average: 60538.846
DILUPBiCGStab:  Solving for k, Initial residual = 0.00028154029, Final residual = 7.5916603e-06, No Iterations 1
bounding k, min: -7146.9576 max: 3444729.8 average: 4645.9907
ExecutionTime = 9.59 s  ClockTime = 10 s

volFieldValue fluid write:
    volAverage(fluid) of T = 1109.251

volFieldValue pcb write:
    volAverage(pcb) of T = 912.17797

volFieldValue component_0 write:
    volAverage(component_0) of T = 1695.0267

volFieldValue component_1 write:
    volAverage(component_1) of T = 2261.149

volFieldValue component_2 write:
    volAverage(component_2) of T = 4799.6936

volFieldValue component_3 write:
    volAverage(component_3) of T = 1337.1626

volFieldValue component_4 write:
    volAverage(component_4) of T = 2142.6321

Time = 132


Solving for fluid region fluid
DILUPBiCGStab:  Solving for Ux, Initial residual = 0.43417753, Final residual = 0.013304985, No Iterations 9
DILUPBiCGStab:  Solving for Uy, Initial residual = 0.42181702, Final residual = 0.0063353884, No Iterations 8

Solving energy coupled regions
Using lduPrimitiveAssembly: lduAssembly456789
DILUPBiCGStab:  Solving for h, Initial residual = 1, Final residual = 0.019321864, No Iterations 13
limitTemperature=limitT, Type=Lower, LimitedCells=3810, CellsPercent=42.27, Tmin=250, UnlimitedTmin=250
limitTemperature=limitT, Type=Upper, LimitedCells=456, CellsPercent=5.06, Tmax=6000, UnlimitedTmax=6000
limitTemperature=limitT, Type=Lower, LimitedCells=405, CellsPercent=80.84, Tmin=250, UnlimitedTmin=250
limitTemperature=limitT, Type=Upper, LimitedCells=0, CellsPercent=0, Tmax=6000, UnlimitedTmax=6000
limitTemperature=limitT, Type=Lower, LimitedCells=16, CellsPercent=10.32, Tmin=250, UnlimitedTmin=250
limitTemperature=limitT, Type=Upper, LimitedCells=46, CellsPercent=29.68, Tmax=6000, UnlimitedTmax=6000
limitTemperature=limitT, Type=Lower, LimitedCells=123, CellsPercent=75.46, Tmin=250, UnlimitedTmin=250
limitTemperature=limitT, Type=Upper, LimitedCells=40, CellsPercent=24.54, Tmax=6000, UnlimitedTmax=6000
limitTemperature=limitT, Type=Lower, LimitedCells=55, CellsPercent=100, Tmin=250, UnlimitedTmin=881.34644
limitTemperature=limitT, Type=Upper, LimitedCells=0, CellsPercent=0, Tmax=6000, UnlimitedTmax=6000
limitTemperature=limitT, Type=Lower, LimitedCells=180, CellsPercent=100, Tmin=250, UnlimitedTmin=250
limitTemperature=limitT, Type=Upper, LimitedCells=0, CellsPercent=0, Tmax=6000, UnlimitedTmax=6000
limitTemperature=limitT, Type=Lower, LimitedCells=166, CellsPercent=100, Tmin=250, UnlimitedTmin=250
limitTemperature=limitT, Type=Upper, LimitedCells=0, CellsPercent=0, Tmax=6000, UnlimitedTmax=6000
DICPBiCGStab:  Solving for p_rgh, Initial residual = 0.93981982, Final residual = 0.046818865, No Iterations 363
time step continuity errors : sum local = 3.9272884e+08, global = -3.8668049e+08, cumulative = -3.8668048e+08
Min/max rho:0.0044343177 72777874
DILUPBiCGStab:  Solving for epsilon, Initial residual = 0.94991444, Final residual = 0.012937877, No Iterations 2
bounding epsilon, min: -35830.189 max: 3.8822787e+10 average: 1.0189748e+08
DILUPBiCGStab:  Solving for k, Initial residual = 0.99996764, Final residual = 0.007367692, No Iterations 1
bounding k, min: -2800.0378 max: 5.0357277e+12 average: 5.204962e+09
ExecutionTime = 9.99 s  ClockTime = 10 s

volFieldValue fluid write:
    volAverage(fluid) of T = 671.99049

volFieldValue pcb write:
    volAverage(pcb) of T = 279.61063

volFieldValue component_0 write:
    volAverage(component_0) of T = 2842.0128

volFieldValue component_1 write:
    volAverage(component_1) of T = 1696.1891

volFieldValue component_2 write:
    volAverage(component_2) of T = 250

volFieldValue component_3 write:
    volAverage(component_3) of T = 250

volFieldValue component_4 write:
    volAverage(component_4) of T = 250

Time = 133


Solving for fluid region fluid
DILUPBiCGStab:  Solving for Ux, Initial residual = 0.35391977, Final residual = 0.009531519, No Iterations 2
DILUPBiCGStab:  Solving for Uy, Initial residual = 0.30517119, Final residual = 0.012542906, No Iterations 2

Solving energy coupled regions
Using lduPrimitiveAssembly: lduAssembly456789
DILUPBiCGStab:  Solving for h, Initial residual = 1, Final residual = 0.02928704, No Iterations 2
limitTemperature=limitT, Type=Lower, LimitedCells=2559, CellsPercent=28.39, Tmin=250, UnlimitedTmin=250
limitTemperature=limitT, Type=Upper, LimitedCells=6455, CellsPercent=71.61, Tmax=6000, UnlimitedTmax=6000
limitTemperature=limitT, Type=Lower, LimitedCells=191, CellsPercent=38.12, Tmin=250, UnlimitedTmin=250
limitTemperature=limitT, Type=Upper, LimitedCells=310, CellsPercent=61.88, Tmax=6000, UnlimitedTmax=2819.458
limitTemperature=limitT, Type=Lower, LimitedCells=85, CellsPercent=54.84, Tmin=250, UnlimitedTmin=250
limitTemperature=limitT, Type=Upper, LimitedCells=70, CellsPercent=45.16, Tmax=6000, UnlimitedTmax=6000
limitTemperature=limitT, Type=Lower, LimitedCells=49, CellsPercent=30.06, Tmin=250, UnlimitedTmin=250
limitTemperature=limitT, Type=Upper, LimitedCells=114, CellsPercent=69.94, Tmax=6000, UnlimitedTmax=6000
limitTemperature=limitT, Type=Lower, LimitedCells=54, CellsPercent=98.18, Tmin=250, UnlimitedTmin=250
limitTemperature=limitT, Type=Upper, LimitedCells=1, CellsPercent=1.82, Tmax=6000, UnlimitedTmax=250
limitTemperature=limitT, Type=Lower, LimitedCells=39, CellsPercent=21.67, Tmin=250, UnlimitedTmin=250
limitTemperature=limitT, Type=Upper, LimitedCells=141, CellsPercent=78.33, Tmax=6000, UnlimitedTmax=250
limitTemperature=limitT, Type=Lower, LimitedCells=91, CellsPercent=54.82, Tmin=250, UnlimitedTmin=250
limitTemperature=limitT, Type=Upper, LimitedCells=75, CellsPercent=45.18, Tmax=6000, UnlimitedTmax=250
DICPBiCGStab:  Solving for p_rgh, Initial residual = 0.99999447, Final residual = 0.088760516, No Iterations 5
time step continuity errors : sum local = 1.7919296e+13, global = -38520179, cumulative = -4.2520066e+08
Min/max rho:0.0022171589 4.0289656e+09
DILUPBiCGStab:  Solving for epsilon, Initial residual = 0.12501098, Final residual = 0.0050216585, No Iterations 2
bounding epsilon, min: -2.0717193e+15 max: 1.8990157e+17 average: 5.2316354e+13
DILUPBiCGStab:  Solving for k, Initial residual = 0.90171357, Final residual = 0.02208322, No Iterations 2
bounding k, min: -3.0661369e+12 max: 5.381371e+14 average: 2.0212771e+11
ExecutionTime = 10.02 s  ClockTime = 10 s

volFieldValue fluid write:
    volAverage(fluid) of T = 4452.6869

volFieldValue pcb write:
    volAverage(pcb) of T = 3809.539

volFieldValue component_0 write:
    volAverage(component_0) of T = 2715.5869

volFieldValue component_1 write:
    volAverage(component_1) of T = 4286.3509

volFieldValue component_2 write:
    volAverage(component_2) of T = 327.52637

volFieldValue component_3 write:
    volAverage(component_3) of T = 4752.8925

volFieldValue component_4 write:
    volAverage(component_4) of T = 2892.7408

Time = 134


Solving for fluid region fluid
DILUPBiCGStab:  Solving for Ux, Initial residual = 0.10296965, Final residual = 0.0025210204, No Iterations 8
DILUPBiCGStab:  Solving for Uy, Initial residual = 0.20507252, Final residual = 0.0029518045, No Iterations 6

Solving energy coupled regions
Using lduPrimitiveAssembly: lduAssembly456789
DILUPBiCGStab:  Solving for h, Initial residual = 1, Final residual = 0.025978435, No Iterations 15
limitTemperature=limitT, Type=Lower, LimitedCells=3056, CellsPercent=33.9, Tmin=250, UnlimitedTmin=250
limitTemperature=limitT, Type=Upper, LimitedCells=5958, CellsPercent=66.1, Tmax=6000, UnlimitedTmax=6000
limitTemperature=limitT, Type=Lower, LimitedCells=233, CellsPercent=46.51, Tmin=250, UnlimitedTmin=250
limitTemperature=limitT, Type=Upper, LimitedCells=268, CellsPercent=53.49, Tmax=6000, UnlimitedTmax=6000
limitTemperature=limitT, Type=Lower, LimitedCells=0, CellsPercent=0, Tmin=250, UnlimitedTmin=250
limitTemperature=limitT, Type=Upper, LimitedCells=155, CellsPercent=100, Tmax=6000, UnlimitedTmax=6000
limitTemperature=limitT, Type=Lower, LimitedCells=0, CellsPercent=0, Tmin=250, UnlimitedTmin=250
limitTemperature=limitT, Type=Upper, LimitedCells=163, CellsPercent=100, Tmax=6000, UnlimitedTmax=6000
limitTemperature=limitT, Type=Lower, LimitedCells=0, CellsPercent=0, Tmin=250, UnlimitedTmin=250
limitTemperature=limitT, Type=Upper, LimitedCells=55, CellsPercent=100, Tmax=6000, UnlimitedTmax=6000
limitTemperature=limitT, Type=Lower, LimitedCells=180, CellsPercent=100, Tmin=250, UnlimitedTmin=250
limitTemperature=limitT, Type=Upper, LimitedCells=0, CellsPercent=0, Tmax=6000, UnlimitedTmax=6000
limitTemperature=limitT, Type=Lower, LimitedCells=166, CellsPercent=100, Tmin=250, UnlimitedTmin=250
limitTemperature=limitT, Type=Upper, LimitedCells=0, CellsPercent=0, Tmax=6000, UnlimitedTmax=6000
DICPBiCGStab:  Solving for p_rgh, Initial residual = 0.99317634, Final residual = 0.087901757, No Iterations 6
time step continuity errors : sum local = 5.6892252e+18, global = 83201295, cumulative = -3.4199937e+08
Min/max rho:0.0011085794 1.7681625e+14
DILUPBiCGStab:  Solving for epsilon, Initial residual = 0.84226047, Final residual = 0.018270949, No Iterations 2
bounding epsilon, min: -3.1714212e+24 max: 1.728111e+25 average: 1.122222e+22
DILUPBiCGStab:  Solving for k, Initial residual = 0.92932243, Final residual = 5.194111e-09, No Iterations 1
bounding k, min: -1.5923115e+10 max: 3.1216903e+22 average: 6.390238e+18
ExecutionTime = 10.14 s  ClockTime = 10 s

volFieldValue fluid write:
    volAverage(fluid) of T = 4040.9526

volFieldValue pcb write:
    volAverage(pcb) of T = 3320.2183

volFieldValue component_0 write:
    volAverage(component_0) of T = 6000

volFieldValue component_1 write:
    volAverage(component_1) of T = 6000

volFieldValue component_2 write:
    volAverage(component_2) of T = 6000

volFieldValue component_3 write:
    volAverage(component_3) of T = 250

volFieldValue component_4 write:
    volAverage(component_4) of T = 250

Time = 135


Solving for fluid region fluid
DILUPBiCGStab:  Solving for Ux, Initial residual = 0.31304054, Final residual = 0.010390231, No Iterations 11
DILUPBiCGStab:  Solving for Uy, Initial residual = 0.57242835, Final residual = 0.0054682685, No Iterations 11

Solving energy coupled regions
Using lduPrimitiveAssembly: lduAssembly456789
DILUPBiCGStab:  Solving for h, Initial residual = 1, Final residual = 0.013552056, No Iterations 25
limitTemperature=limitT, Type=Lower, LimitedCells=1226, CellsPercent=13.6, Tmin=250, UnlimitedTmin=250
limitTemperature=limitT, Type=Upper, LimitedCells=7788, CellsPercent=86.4, Tmax=6000, UnlimitedTmax=6000
limitTemperature=limitT, Type=Lower, LimitedCells=23, CellsPercent=4.59, Tmin=250, UnlimitedTmin=250
limitTemperature=limitT, Type=Upper, LimitedCells=478, CellsPercent=95.41, Tmax=6000, UnlimitedTmax=6000
limitTemperature=limitT, Type=Lower, LimitedCells=0, CellsPercent=0, Tmin=250, UnlimitedTmin=6000
limitTemperature=limitT, Type=Upper, LimitedCells=155, CellsPercent=100, Tmax=6000, UnlimitedTmax=6000
limitTemperature=limitT, Type=Lower, LimitedCells=0, CellsPercent=0, Tmin=250, UnlimitedTmin=6000
limitTemperature=limitT, Type=Upper, LimitedCells=163, CellsPercent=100, Tmax=6000, UnlimitedTmax=6000
limitTemperature=limitT, Type=Lower, LimitedCells=0, CellsPercent=0, Tmin=250, UnlimitedTmin=6000
limitTemperature=limitT, Type=Upper, LimitedCells=55, CellsPercent=100, Tmax=6000, UnlimitedTmax=6000
limitTemperature=limitT, Type=Lower, LimitedCells=33, CellsPercent=18.33, Tmin=250, UnlimitedTmin=250
limitTemperature=limitT, Type=Upper, LimitedCells=147, CellsPercent=81.67, Tmax=6000, UnlimitedTmax=250
limitTemperature=limitT, Type=Lower, LimitedCells=0, CellsPercent=0, Tmin=250, UnlimitedTmin=250
limitTemperature=limitT, Type=Upper, LimitedCells=166, CellsPercent=100, Tmax=6000, UnlimitedTmax=250
[stack trace]
=============
#1  Foam::sigFpe::sigHandler(int) in /usr/lib/openfoam/openfoam2506/platforms/linux64GccDPInt32Opt/lib/libOpenFOAM.so
#2  ? in /lib/x86_64-linux-gnu/libc.so.6
#3  Foam::DICPreconditioner::calcReciprocalD(Foam::Field<double>&, Foam::lduMatrix const&) in /usr/lib/openfoam/openfoam2506/platforms/linux64GccDPInt32Opt/lib/libOpenFOAM.so
#4  Foam::DICPreconditioner::DICPreconditioner(Foam::lduMatrix::solver const&, Foam::dictionary const&) in /usr/lib/openfoam/openfoam2506/platforms/linux64GccDPInt32Opt/lib/libOpenFOAM.so
#5  Foam::lduMatrix::preconditioner::addsymMatrixConstructorToTable<Foam::DICPreconditioner>::New(Foam::lduMatrix::solver const&, Foam::dictionary const&) in /usr/lib/openfoam/openfoam2506/platforms/linux64GccDPInt32Opt/lib/libOpenFOAM.so
#6  Foam::lduMatrix::preconditioner::New(Foam::lduMatrix::solver const&, Foam::dictionary const&) in /usr/lib/openfoam/openfoam2506/platforms/linux64GccDPInt32Opt/lib/libOpenFOAM.so
#7  Foam::PBiCGStab::scalarSolve(Foam::Field<double>&, Foam::Field<double> const&, unsigned char) const in /usr/lib/openfoam/openfoam2506/platforms/linux64GccDPInt32Opt/lib/libOpenFOAM.so
#8  Foam::PBiCGStab::solve(Foam::Field<double>&, Foam::Field<double> const&, unsigned char) const in /usr/lib/openfoam/openfoam2506/platforms/linux64GccDPInt32Opt/lib/libOpenFOAM.so
#9  Foam::fvMatrix<double>::solveSegregated(Foam::dictionary const&) in /usr/lib/openfoam/openfoam2506/platforms/linux64GccDPInt32Opt/lib/libfiniteVolume.so
#10  ? in /usr/lib/openfoam/openfoam2506/platforms/linux64GccDPInt32Opt/lib/libfiniteVolume.so
#11  Foam::fvMesh::solve(Foam::fvMatrix<double>&, Foam::dictionary const&) const in /usr/lib/openfoam/openfoam2506/platforms/linux64GccDPInt32Opt/lib/libfiniteVolume.so
#12  ? in /usr/lib/openfoam/openfoam2506/platforms/linux64GccDPInt32Opt/bin/chtMultiRegionSimpleFoam
#13  ? in /usr/lib/openfoam/openfoam2506/platforms/linux64GccDPInt32Opt/bin/chtMultiRegionSimpleFoam
#14  ? in /lib/x86_64-linux-gnu/libc.so.6
#15  __libc_start_main in /lib/x86_64-linux-gnu/libc.so.6
#16  ? in /usr/lib/openfoam/openfoam2506/platforms/linux64GccDPInt32Opt/bin/chtMultiRegionSimpleFoam
=============
Floating point exception (core dumped)
