/*---------------------------------------------------------------------------*\
| =========                 |                                                 |
| \\      /  F ield         | OpenFOAM: The Open Source CFD Toolbox           |
|  \\    /   O peration     | Version:  2506                                  |
|   \\  /    A nd           | Website:  www.openfoam.com                      |
|    \\/     M anipulation  |                                                 |
\*---------------------------------------------------------------------------*/
Build  : _615aae61-20250627 OPENFOAM=2506 version=2506
Arch   : "LSB;label=32;scalar=64"
Exec   : chtMultiRegionSimpleFoam
Date   : Sep 24 2025
Time   : 00:47:09
Host   : instance-20250906-0051
PID    : 232187
I/O    : uncollated
Case   : /home/ubuntu/ThermalUNet/data_generation/simulation_results/case_45
nProcs : 1
trapFpe: Floating point exception trapping enabled (FOAM_SIGFPE).
fileModificationChecking : Monitoring run-time modified files using timeStampMaster (fileModificationSkew 5, maxFileModificationPolls 20)
allowSystemOperations : Allowing user-supplied system call operations

// * * * * * * * * * * * * * * * * * * * * * * * * * * * * * * * * * * * * * //
Create time

Create fluid mesh for region fluid for time = 0

Create solid mesh for region pcb for time = 0

Create solid mesh for region component_0 for time = 0

Create solid mesh for region component_1 for time = 0

Create solid mesh for region component_2 for time = 0

Create solid mesh for region component_3 for time = 0

Create solid mesh for region component_4 for time = 0

*** Reading fluid mesh thermophysical properties for region fluid

    Adding to thermoFluid

Selecting thermodynamics package 
{
    type            heRhoThermo;
    mixture         pureMixture;
    transport       const;
    thermo          hConst;
    equationOfState perfectGas;
    specie          specie;
    energy          sensibleEnthalpy;
}

    Adding to rhoFluid

    Adding to UFluid

    Adding to phiFluid

    Adding to hRefFluid

    Adding to ghFluid

    Adding to ghfFluid

    Adding to turbulence

Selecting turbulence model type RAS
Selecting RAS turbulence model realizableKE
RAS
{
    RASModel        realizableKE;
    turbulence      on;
    printCoeffs     on;
    A0              4;
    C2              1.9;
    sigmak          1;
    sigmaEps        1.2;
}

Radiation model not active: radiationProperties not found
Selecting radiationModel none
    Adding MRF

No MRF models present

    Adding fvOptions

Creating finite volume options from "system/fvOptions"

Selecting finite volume options type limitTemperature
    Source: limitT
    State: active
    - selecting all cells
    - selected 8674 cell(s) with volume 16.567724
*** Reading solid mesh thermophysical properties for region pcb

    Adding to thermos

Selecting thermodynamics package 
{
    type            heSolidThermo;
    mixture         pureMixture;
    transport       constIso;
    thermo          hConst;
    equationOfState rhoConst;
    specie          specie;
    energy          sensibleEnthalpy;
}

    Adding to radiations

Radiation model not active: radiationProperties not found
Selecting radiationModel none
    Adding fvOptions

Creating finite volume options from "system/fvOptions"

Selecting finite volume options type limitTemperature
    Source: limitT
    State: active
    - selecting all cells
    - selected 686 cell(s) with volume 1.231821
*** Reading solid mesh thermophysical properties for region component_0

    Adding to thermos

Selecting thermodynamics package 
{
    type            heSolidThermo;
    mixture         pureMixture;
    transport       constIso;
    thermo          hConst;
    equationOfState rhoConst;
    specie          specie;
    energy          sensibleEnthalpy;
}

    Adding to radiations

Radiation model not active: radiationProperties not found
Selecting radiationModel none
    Adding fvOptions

Creating finite volume options from "system/fvOptions"

Selecting finite volume options type scalarSemiImplicitSource
    Source: v_CPU_AbsoluteEnergySource
    State: active
    - selecting cells using cellZones (component_0)
    - selected 32 cell(s) with volume 0.056490243
Selecting finite volume options type limitTemperature
    Source: limitT
    State: active
    - selecting all cells
    - selected 32 cell(s) with volume 0.056490243
*** Reading solid mesh thermophysical properties for region component_1

    Adding to thermos

Selecting thermodynamics package 
{
    type            heSolidThermo;
    mixture         pureMixture;
    transport       constIso;
    thermo          hConst;
    equationOfState rhoConst;
    specie          specie;
    energy          sensibleEnthalpy;
}

    Adding to radiations

Radiation model not active: radiationProperties not found
Selecting radiationModel none
    Adding fvOptions

Creating finite volume options from "system/fvOptions"

Selecting finite volume options type scalarSemiImplicitSource
    Source: v_CPU_AbsoluteEnergySource
    State: active
    - selecting cells using cellZones (component_1)
    - selected 168 cell(s) with volume 0.34307595
Selecting finite volume options type limitTemperature
    Source: limitT
    State: active
    - selecting all cells
    - selected 168 cell(s) with volume 0.34307595
*** Reading solid mesh thermophysical properties for region component_2

    Adding to thermos

Selecting thermodynamics package 
{
    type            heSolidThermo;
    mixture         pureMixture;
    transport       constIso;
    thermo          hConst;
    equationOfState rhoConst;
    specie          specie;
    energy          sensibleEnthalpy;
}

    Adding to radiations

Radiation model not active: radiationProperties not found
Selecting radiationModel none
    Adding fvOptions

Creating finite volume options from "system/fvOptions"

Selecting finite volume options type scalarSemiImplicitSource
    Source: v_CPU_AbsoluteEnergySource
    State: active
    - selecting cells using cellZones (component_2)
    - selected 352 cell(s) with volume 0.6715627
Selecting finite volume options type limitTemperature
    Source: limitT
    State: active
    - selecting all cells
    - selected 352 cell(s) with volume 0.6715627
*** Reading solid mesh thermophysical properties for region component_3

    Adding to thermos

Selecting thermodynamics package 
{
    type            heSolidThermo;
    mixture         pureMixture;
    transport       constIso;
    thermo          hConst;
    equationOfState rhoConst;
    specie          specie;
    energy          sensibleEnthalpy;
}

    Adding to radiations

Radiation model not active: radiationProperties not found
Selecting radiationModel none
    Adding fvOptions

Creating finite volume options from "system/fvOptions"

Selecting finite volume options type scalarSemiImplicitSource
    Source: v_CPU_AbsoluteEnergySource
    State: active
    - selecting cells using cellZones (component_3)
    - selected 360 cell(s) with volume 0.72763686
Selecting finite volume options type limitTemperature
    Source: limitT
    State: active
    - selecting all cells
    - selected 360 cell(s) with volume 0.72763686
*** Reading solid mesh thermophysical properties for region component_4

    Adding to thermos

Selecting thermodynamics package 
{
    type            heSolidThermo;
    mixture         pureMixture;
    transport       constIso;
    thermo          hConst;
    equationOfState rhoConst;
    specie          specie;
    energy          sensibleEnthalpy;
}

    Adding to radiations

Radiation model not active: radiationProperties not found
Selecting radiationModel none
    Adding fvOptions

Creating finite volume options from "system/fvOptions"

Selecting finite volume options type scalarSemiImplicitSource
    Source: v_CPU_AbsoluteEnergySource
    State: active
    - selecting cells using cellZones (component_4)
    - selected 208 cell(s) with volume 0.40168918
Selecting finite volume options type limitTemperature
    Source: limitT
    State: active
    - selecting all cells
    - selected 208 cell(s) with volume 0.40168918
Create fvMatrixAssembly.
--> FOAM Warning : 

    failed lookup of region0 (objectRegistry case_45)
    available objects of type objectRegistry:
7(component_3 component_0 component_1 fluid pcb component_4 component_2)


    From const Type& Foam::objectRegistry::lookupObject(const Foam::word&, bool) const [with Type = Foam::objectRegistry]
    in file db/objectRegistry/objectRegistryTemplates.C at line 628.
--> loading function object 'limitT'

Time = 1


Solving for fluid region fluid
DILUPBiCGStab:  Solving for Ux, Initial residual = 1, Final residual = 0.0074366534, No Iterations 3
DILUPBiCGStab:  Solving for Uy, Initial residual = 1, Final residual = 0.037112864, No Iterations 2

Solving energy coupled regions
Creating lduPrimitiveAssembly: lduAssembly456789
DILUPBiCGStab:  Solving for h, Initial residual = 0.01314173, Final residual = 0.00023077687, No Iterations 1
limitTemperature=limitT, Type=Lower, LimitedCells=0, CellsPercent=0, Tmin=250, UnlimitedTmin=300
limitTemperature=limitT, Type=Upper, LimitedCells=0, CellsPercent=0, Tmax=6000, UnlimitedTmax=300
limitTemperature=limitT, Type=Lower, LimitedCells=0, CellsPercent=0, Tmin=250, UnlimitedTmin=300
limitTemperature=limitT, Type=Upper, LimitedCells=0, CellsPercent=0, Tmax=6000, UnlimitedTmax=300
limitTemperature=limitT, Type=Lower, LimitedCells=0, CellsPercent=0, Tmin=250, UnlimitedTmin=300
limitTemperature=limitT, Type=Upper, LimitedCells=0, CellsPercent=0, Tmax=600, UnlimitedTmax=300
limitTemperature=limitT, Type=Lower, LimitedCells=0, CellsPercent=0, Tmin=250, UnlimitedTmin=300
limitTemperature=limitT, Type=Upper, LimitedCells=0, CellsPercent=0, Tmax=600, UnlimitedTmax=300
limitTemperature=limitT, Type=Lower, LimitedCells=0, CellsPercent=0, Tmin=250, UnlimitedTmin=300
limitTemperature=limitT, Type=Upper, LimitedCells=0, CellsPercent=0, Tmax=600, UnlimitedTmax=300
limitTemperature=limitT, Type=Lower, LimitedCells=0, CellsPercent=0, Tmin=250, UnlimitedTmin=300
limitTemperature=limitT, Type=Upper, LimitedCells=0, CellsPercent=0, Tmax=600, UnlimitedTmax=300
limitTemperature=limitT, Type=Lower, LimitedCells=0, CellsPercent=0, Tmin=250, UnlimitedTmin=300
limitTemperature=limitT, Type=Upper, LimitedCells=0, CellsPercent=0, Tmax=600, UnlimitedTmax=300
DICPBiCGStab:  Solving for p_rgh, Initial residual = 1, Final residual = 0.09412832, No Iterations 105
time step continuity errors : sum local = 0.016264492, global = -0.0091578648, cumulative = -0.0091578648
Min/max rho:1.1764648 1.1766651
DILUPBiCGStab:  Solving for epsilon, Initial residual = 0.8692772, Final residual = 0.025698744, No Iterations 1
DILUPBiCGStab:  Solving for k, Initial residual = 1, Final residual = 0.010729686, No Iterations 1
ExecutionTime = 0.3 s  ClockTime = 1 s

volFieldValue fluid write:
    volAverage(fluid) of T = 300.00022

volFieldValue pcb write:
    volAverage(pcb) of T = 300.01064

volFieldValue component_0 write:
    volAverage(component_0) of T = 306.32045

volFieldValue component_1 write:
    volAverage(component_1) of T = 300.43243

volFieldValue component_2 write:
    volAverage(component_2) of T = 300.92316

volFieldValue component_3 write:
    volAverage(component_3) of T = 300.64329

volFieldValue component_4 write:
    volAverage(component_4) of T = 300.448

Time = 2


Solving for fluid region fluid
DILUPBiCGStab:  Solving for Ux, Initial residual = 0.56731385, Final residual = 0.011578041, No Iterations 2
DILUPBiCGStab:  Solving for Uy, Initial residual = 0.54686277, Final residual = 0.011449883, No Iterations 2

Solving energy coupled regions
Using lduPrimitiveAssembly: lduAssembly456789
DILUPBiCGStab:  Solving for h, Initial residual = 0.013246149, Final residual = 0.00020590153, No Iterations 1
limitTemperature=limitT, Type=Lower, LimitedCells=0, CellsPercent=0, Tmin=250, UnlimitedTmin=299.9951
limitTemperature=limitT, Type=Upper, LimitedCells=0, CellsPercent=0, Tmax=6000, UnlimitedTmax=300.09727
limitTemperature=limitT, Type=Lower, LimitedCells=0, CellsPercent=0, Tmin=250, UnlimitedTmin=299.99809
limitTemperature=limitT, Type=Upper, LimitedCells=0, CellsPercent=0, Tmax=6000, UnlimitedTmax=300.32716
limitTemperature=limitT, Type=Lower, LimitedCells=0, CellsPercent=0, Tmin=250, UnlimitedTmin=305.74601
limitTemperature=limitT, Type=Upper, LimitedCells=0, CellsPercent=0, Tmax=600, UnlimitedTmax=307.29755
limitTemperature=limitT, Type=Lower, LimitedCells=0, CellsPercent=0, Tmin=250, UnlimitedTmin=300.38581
limitTemperature=limitT, Type=Upper, LimitedCells=0, CellsPercent=0, Tmax=600, UnlimitedTmax=300.56784
limitTemperature=limitT, Type=Lower, LimitedCells=0, CellsPercent=0, Tmin=250, UnlimitedTmin=300.82972
limitTemperature=limitT, Type=Upper, LimitedCells=0, CellsPercent=0, Tmax=600, UnlimitedTmax=301.16365
limitTemperature=limitT, Type=Lower, LimitedCells=0, CellsPercent=0, Tmin=250, UnlimitedTmin=300.57853
limitTemperature=limitT, Type=Upper, LimitedCells=0, CellsPercent=0, Tmax=600, UnlimitedTmax=300.84244
limitTemperature=limitT, Type=Lower, LimitedCells=0, CellsPercent=0, Tmin=250, UnlimitedTmin=300.40255
limitTemperature=limitT, Type=Upper, LimitedCells=0, CellsPercent=0, Tmax=600, UnlimitedTmax=300.6043
DICPBiCGStab:  Solving for p_rgh, Initial residual = 0.14484075, Final residual = 0.014257254, No Iterations 125
time step continuity errors : sum local = 0.018313368, global = -0.005168985, cumulative = -0.01432685
Min/max rho:1.1632018 1.176785
DILUPBiCGStab:  Solving for epsilon, Initial residual = 0.82861341, Final residual = 0.0014186972, No Iterations 1
DILUPBiCGStab:  Solving for k, Initial residual = 0.87255727, Final residual = 0.014355655, No Iterations 1
ExecutionTime = 0.47 s  ClockTime = 1 s

volFieldValue fluid write:
    volAverage(fluid) of T = 300.00037

volFieldValue pcb write:
    volAverage(pcb) of T = 300.03074

volFieldValue component_0 write:
    volAverage(component_0) of T = 312.40047

volFieldValue component_1 write:
    volAverage(component_1) of T = 300.86081

volFieldValue component_2 write:
    volAverage(component_2) of T = 301.83204

volFieldValue component_3 write:
    volAverage(component_3) of T = 301.27954

volFieldValue component_4 write:
    volAverage(component_4) of T = 300.89258

Time = 3


Solving for fluid region fluid
DILUPBiCGStab:  Solving for Ux, Initial residual = 0.38511448, Final residual = 0.0087626053, No Iterations 2
DILUPBiCGStab:  Solving for Uy, Initial residual = 0.35468525, Final residual = 0.0081364887, No Iterations 2

Solving energy coupled regions
Using lduPrimitiveAssembly: lduAssembly456789
DILUPBiCGStab:  Solving for h, Initial residual = 0.012605885, Final residual = 0.00023683598, No Iterations 1
limitTemperature=limitT, Type=Lower, LimitedCells=0, CellsPercent=0, Tmin=250, UnlimitedTmin=299.99638
limitTemperature=limitT, Type=Upper, LimitedCells=0, CellsPercent=0, Tmax=6000, UnlimitedTmax=300.10579
limitTemperature=limitT, Type=Lower, LimitedCells=0, CellsPercent=0, Tmin=250, UnlimitedTmin=299.99739
limitTemperature=limitT, Type=Upper, LimitedCells=0, CellsPercent=0, Tmax=6000, UnlimitedTmax=300.91332
limitTemperature=limitT, Type=Lower, LimitedCells=0, CellsPercent=0, Tmin=250, UnlimitedTmin=311.59598
limitTemperature=limitT, Type=Upper, LimitedCells=0, CellsPercent=0, Tmax=600, UnlimitedTmax=313.70277
limitTemperature=limitT, Type=Lower, LimitedCells=0, CellsPercent=0, Tmin=250, UnlimitedTmin=300.78778
limitTemperature=limitT, Type=Upper, LimitedCells=0, CellsPercent=0, Tmax=600, UnlimitedTmax=301.06799
limitTemperature=limitT, Type=Lower, LimitedCells=0, CellsPercent=0, Tmin=250, UnlimitedTmin=301.68036
limitTemperature=limitT, Type=Upper, LimitedCells=0, CellsPercent=0, Tmax=600, UnlimitedTmax=302.18225
limitTemperature=limitT, Type=Lower, LimitedCells=0, CellsPercent=0, Tmin=250, UnlimitedTmin=301.17686
limitTemperature=limitT, Type=Upper, LimitedCells=0, CellsPercent=0, Tmax=600, UnlimitedTmax=301.57877
limitTemperature=limitT, Type=Lower, LimitedCells=0, CellsPercent=0, Tmin=250, UnlimitedTmin=300.81357
limitTemperature=limitT, Type=Upper, LimitedCells=0, CellsPercent=0, Tmax=600, UnlimitedTmax=301.1356
DICPBiCGStab:  Solving for p_rgh, Initial residual = 0.082005183, Final residual = 0.0080251264, No Iterations 101
time step continuity errors : sum local = 0.022301748, global = 0.011729431, cumulative = -0.0025974186
Min/max rho:1.144998 1.1770007
DILUPBiCGStab:  Solving for epsilon, Initial residual = 0.71695233, Final residual = 0.0029799435, No Iterations 1
DILUPBiCGStab:  Solving for k, Initial residual = 0.69969606, Final residual = 0.016324398, No Iterations 1
ExecutionTime = 0.6 s  ClockTime = 1 s

volFieldValue fluid write:
    volAverage(fluid) of T = 300.00139

volFieldValue pcb write:
    volAverage(pcb) of T = 300.05839

volFieldValue component_0 write:
    volAverage(component_0) of T = 316.32912

volFieldValue component_1 write:
    volAverage(component_1) of T = 301.26706

volFieldValue component_2 write:
    volAverage(component_2) of T = 302.64165

volFieldValue component_3 write:
    volAverage(component_3) of T = 301.87507

volFieldValue component_4 write:
    volAverage(component_4) of T = 301.31635

Time = 4


Solving for fluid region fluid
DILUPBiCGStab:  Solving for Ux, Initial residual = 0.25430169, Final residual = 0.0056522311, No Iterations 2
DILUPBiCGStab:  Solving for Uy, Initial residual = 0.21645369, Final residual = 0.00669658, No Iterations 2

Solving energy coupled regions
Using lduPrimitiveAssembly: lduAssembly456789
DILUPBiCGStab:  Solving for h, Initial residual = 0.012232116, Final residual = 0.00025433942, No Iterations 1
limitTemperature=limitT, Type=Lower, LimitedCells=0, CellsPercent=0, Tmin=250, UnlimitedTmin=299.99772
limitTemperature=limitT, Type=Upper, LimitedCells=0, CellsPercent=0, Tmax=6000, UnlimitedTmax=300.43334
limitTemperature=limitT, Type=Lower, LimitedCells=0, CellsPercent=0, Tmin=250, UnlimitedTmin=299.99793
limitTemperature=limitT, Type=Upper, LimitedCells=0, CellsPercent=0, Tmax=6000, UnlimitedTmax=301.60658
limitTemperature=limitT, Type=Lower, LimitedCells=0, CellsPercent=0, Tmin=250, UnlimitedTmin=313.31727
limitTemperature=limitT, Type=Upper, LimitedCells=0, CellsPercent=0, Tmax=600, UnlimitedTmax=317.94834
limitTemperature=limitT, Type=Lower, LimitedCells=0, CellsPercent=0, Tmin=250, UnlimitedTmin=301.18943
limitTemperature=limitT, Type=Upper, LimitedCells=0, CellsPercent=0, Tmax=600, UnlimitedTmax=301.49144
limitTemperature=limitT, Type=Lower, LimitedCells=0, CellsPercent=0, Tmin=250, UnlimitedTmin=302.17061
limitTemperature=limitT, Type=Upper, LimitedCells=0, CellsPercent=0, Tmax=600, UnlimitedTmax=302.90846
limitTemperature=limitT, Type=Lower, LimitedCells=0, CellsPercent=0, Tmin=250, UnlimitedTmin=301.78077
limitTemperature=limitT, Type=Upper, LimitedCells=0, CellsPercent=0, Tmax=600, UnlimitedTmax=302.15113
limitTemperature=limitT, Type=Lower, LimitedCells=0, CellsPercent=0, Tmin=250, UnlimitedTmin=301.22772
limitTemperature=limitT, Type=Upper, LimitedCells=0, CellsPercent=0, Tmax=600, UnlimitedTmax=301.57767
DICPBiCGStab:  Solving for p_rgh, Initial residual = 0.10045026, Final residual = 0.0097464548, No Iterations 13
time step continuity errors : sum local = 0.032923235, global = -0.0031257489, cumulative = -0.0057231675
Min/max rho:1.1289136 1.177202
DILUPBiCGStab:  Solving for epsilon, Initial residual = 0.56386397, Final residual = 0.0044183346, No Iterations 1
DILUPBiCGStab:  Solving for k, Initial residual = 0.54689803, Final residual = 0.015722458, No Iterations 1
ExecutionTime = 0.67 s  ClockTime = 1 s

volFieldValue fluid write:
    volAverage(fluid) of T = 300.00264

volFieldValue pcb write:
    volAverage(pcb) of T = 300.09239

volFieldValue component_0 write:
    volAverage(component_0) of T = 319.13259

volFieldValue component_1 write:
    volAverage(component_1) of T = 301.65913

volFieldValue component_2 write:
    volAverage(component_2) of T = 303.38651

volFieldValue component_3 write:
    volAverage(component_3) of T = 302.44314

volFieldValue component_4 write:
    volAverage(component_4) of T = 301.72685

Time = 5


Solving for fluid region fluid
DILUPBiCGStab:  Solving for Ux, Initial residual = 0.17262018, Final residual = 0.0038564249, No Iterations 2
DILUPBiCGStab:  Solving for Uy, Initial residual = 0.1317752, Final residual = 0.0033618054, No Iterations 2

Solving energy coupled regions
Using lduPrimitiveAssembly: lduAssembly456789
DILUPBiCGStab:  Solving for h, Initial residual = 0.01212105, Final residual = 0.00022679342, No Iterations 1
limitTemperature=limitT, Type=Lower, LimitedCells=0, CellsPercent=0, Tmin=250, UnlimitedTmin=299.99857
limitTemperature=limitT, Type=Upper, LimitedCells=0, CellsPercent=0, Tmax=6000, UnlimitedTmax=300.90343
limitTemperature=limitT, Type=Lower, LimitedCells=0, CellsPercent=0, Tmin=250, UnlimitedTmin=299.99852
limitTemperature=limitT, Type=Upper, LimitedCells=0, CellsPercent=0, Tmax=6000, UnlimitedTmax=302.45917
limitTemperature=limitT, Type=Lower, LimitedCells=0, CellsPercent=0, Tmin=250, UnlimitedTmin=310.76802
limitTemperature=limitT, Type=Upper, LimitedCells=0, CellsPercent=0, Tmax=600, UnlimitedTmax=322.31979
limitTemperature=limitT, Type=Lower, LimitedCells=0, CellsPercent=0, Tmin=250, UnlimitedTmin=301.58729
limitTemperature=limitT, Type=Upper, LimitedCells=0, CellsPercent=0, Tmax=600, UnlimitedTmax=301.89234
limitTemperature=limitT, Type=Lower, LimitedCells=0, CellsPercent=0, Tmin=250, UnlimitedTmin=301.83406
limitTemperature=limitT, Type=Upper, LimitedCells=0, CellsPercent=0, Tmax=600, UnlimitedTmax=303.79128
limitTemperature=limitT, Type=Lower, LimitedCells=0, CellsPercent=0, Tmin=250, UnlimitedTmin=302.1758
limitTemperature=limitT, Type=Upper, LimitedCells=0, CellsPercent=0, Tmax=600, UnlimitedTmax=302.6795
limitTemperature=limitT, Type=Lower, LimitedCells=0, CellsPercent=0, Tmin=250, UnlimitedTmin=301.64294
limitTemperature=limitT, Type=Upper, LimitedCells=0, CellsPercent=0, Tmax=600, UnlimitedTmax=302.00832
DICPBiCGStab:  Solving for p_rgh, Initial residual = 0.099809426, Final residual = 0.0098568094, No Iterations 21
time step continuity errors : sum local = 0.037355709, global = 0.0046507569, cumulative = -0.0010724106
Min/max rho:1.1146257 1.177301
DILUPBiCGStab:  Solving for epsilon, Initial residual = 0.3586054, Final residual = 0.0049170362, No Iterations 1
DILUPBiCGStab:  Solving for k, Initial residual = 0.41573917, Final residual = 0.014649536, No Iterations 1
ExecutionTime = 0.76 s  ClockTime = 1 s

volFieldValue fluid write:
    volAverage(fluid) of T = 300.00351

volFieldValue pcb write:
    volAverage(pcb) of T = 300.13176

volFieldValue component_0 write:
    volAverage(component_0) of T = 321.94967

volFieldValue component_1 write:
    volAverage(component_1) of T = 302.04431

volFieldValue component_2 write:
    volAverage(component_2) of T = 304.11042

volFieldValue component_3 write:
    volAverage(component_3) of T = 302.99808

volFieldValue component_4 write:
    volAverage(component_4) of T = 302.13078

Time = 6


Solving for fluid region fluid
DILUPBiCGStab:  Solving for Ux, Initial residual = 0.12638428, Final residual = 0.0029322913, No Iterations 2
DILUPBiCGStab:  Solving for Uy, Initial residual = 0.074442643, Final residual = 0.0024411513, No Iterations 2

Solving energy coupled regions
Using lduPrimitiveAssembly: lduAssembly456789
DILUPBiCGStab:  Solving for h, Initial residual = 0.012104747, Final residual = 0.00021037584, No Iterations 1
limitTemperature=limitT, Type=Lower, LimitedCells=0, CellsPercent=0, Tmin=250, UnlimitedTmin=299.9987
limitTemperature=limitT, Type=Upper, LimitedCells=0, CellsPercent=0, Tmax=6000, UnlimitedTmax=300.74869
limitTemperature=limitT, Type=Lower, LimitedCells=0, CellsPercent=0, Tmin=250, UnlimitedTmin=299.99916
limitTemperature=limitT, Type=Upper, LimitedCells=0, CellsPercent=0, Tmax=6000, UnlimitedTmax=303.40876
limitTemperature=limitT, Type=Lower, LimitedCells=0, CellsPercent=0, Tmin=250, UnlimitedTmin=311.39352
limitTemperature=limitT, Type=Upper, LimitedCells=0, CellsPercent=0, Tmax=600, UnlimitedTmax=326.12892
limitTemperature=limitT, Type=Lower, LimitedCells=0, CellsPercent=0, Tmin=250, UnlimitedTmin=301.89633
limitTemperature=limitT, Type=Upper, LimitedCells=0, CellsPercent=0, Tmax=600, UnlimitedTmax=302.27457
limitTemperature=limitT, Type=Lower, LimitedCells=0, CellsPercent=0, Tmin=250, UnlimitedTmin=301.908
limitTemperature=limitT, Type=Upper, LimitedCells=0, CellsPercent=0, Tmax=600, UnlimitedTmax=304.65728
limitTemperature=limitT, Type=Lower, LimitedCells=0, CellsPercent=0, Tmin=250, UnlimitedTmin=302.45883
limitTemperature=limitT, Type=Upper, LimitedCells=0, CellsPercent=0, Tmax=600, UnlimitedTmax=303.28061
limitTemperature=limitT, Type=Lower, LimitedCells=0, CellsPercent=0, Tmin=250, UnlimitedTmin=301.95046
limitTemperature=limitT, Type=Upper, LimitedCells=0, CellsPercent=0, Tmax=600, UnlimitedTmax=302.39629
DICPBiCGStab:  Solving for p_rgh, Initial residual = 0.11081362, Final residual = 0.011039583, No Iterations 29
time step continuity errors : sum local = 0.039687682, global = 0.028241941, cumulative = 0.02716953
Min/max rho:1.1024044 1.1773442
DILUPBiCGStab:  Solving for epsilon, Initial residual = 0.21839738, Final residual = 0.0043557215, No Iterations 1
DILUPBiCGStab:  Solving for k, Initial residual = 0.31949847, Final residual = 0.012854019, No Iterations 1
ExecutionTime = 0.8 s  ClockTime = 1 s

volFieldValue fluid write:
    volAverage(fluid) of T = 300.00473

volFieldValue pcb write:
    volAverage(pcb) of T = 300.17773

volFieldValue component_0 write:
    volAverage(component_0) of T = 325.07694

volFieldValue component_1 write:
    volAverage(component_1) of T = 302.42382

volFieldValue component_2 write:
    volAverage(component_2) of T = 304.82534

volFieldValue component_3 write:
    volAverage(component_3) of T = 303.54274

volFieldValue component_4 write:
    volAverage(component_4) of T = 302.52935

Time = 7


Solving for fluid region fluid
DILUPBiCGStab:  Solving for Ux, Initial residual = 0.11187974, Final residual = 0.0025271848, No Iterations 2
DILUPBiCGStab:  Solving for Uy, Initial residual = 0.055901735, Final residual = 0.0017352057, No Iterations 2

Solving energy coupled regions
Using lduPrimitiveAssembly: lduAssembly456789
DILUPBiCGStab:  Solving for h, Initial residual = 0.012307548, Final residual = 0.00029175209, No Iterations 1
limitTemperature=limitT, Type=Lower, LimitedCells=0, CellsPercent=0, Tmin=250, UnlimitedTmin=299.9982
limitTemperature=limitT, Type=Upper, LimitedCells=0, CellsPercent=0, Tmax=6000, UnlimitedTmax=302.97091
limitTemperature=limitT, Type=Lower, LimitedCells=0, CellsPercent=0, Tmin=250, UnlimitedTmin=299.99916
limitTemperature=limitT, Type=Upper, LimitedCells=0, CellsPercent=0, Tmax=6000, UnlimitedTmax=304.43807
limitTemperature=limitT, Type=Lower, LimitedCells=0, CellsPercent=0, Tmin=250, UnlimitedTmin=315.12518
limitTemperature=limitT, Type=Upper, LimitedCells=0, CellsPercent=0, Tmax=600, UnlimitedTmax=329.68636
limitTemperature=limitT, Type=Lower, LimitedCells=0, CellsPercent=0, Tmin=250, UnlimitedTmin=302.17121
limitTemperature=limitT, Type=Upper, LimitedCells=0, CellsPercent=0, Tmax=600, UnlimitedTmax=302.64747
limitTemperature=limitT, Type=Lower, LimitedCells=0, CellsPercent=0, Tmin=250, UnlimitedTmin=302.38864
limitTemperature=limitT, Type=Upper, LimitedCells=0, CellsPercent=0, Tmax=600, UnlimitedTmax=305.50564
limitTemperature=limitT, Type=Lower, LimitedCells=0, CellsPercent=0, Tmin=250, UnlimitedTmin=302.80634
limitTemperature=limitT, Type=Upper, LimitedCells=0, CellsPercent=0, Tmax=600, UnlimitedTmax=303.88967
limitTemperature=limitT, Type=Lower, LimitedCells=0, CellsPercent=0, Tmin=250, UnlimitedTmin=302.21777
limitTemperature=limitT, Type=Upper, LimitedCells=0, CellsPercent=0, Tmax=600, UnlimitedTmax=302.78789
DICPBiCGStab:  Solving for p_rgh, Initial residual = 0.12469545, Final residual = 0.012458157, No Iterations 76
time step continuity errors : sum local = 0.038156336, global = 0.033623682, cumulative = 0.060793212
Min/max rho:1.0908221 1.177351
DILUPBiCGStab:  Solving for epsilon, Initial residual = 0.14375486, Final residual = 0.0032181816, No Iterations 1
DILUPBiCGStab:  Solving for k, Initial residual = 0.25631761, Final residual = 0.010428645, No Iterations 1
ExecutionTime = 0.91 s  ClockTime = 1 s

volFieldValue fluid write:
    volAverage(fluid) of T = 300.0056

volFieldValue pcb write:
    volAverage(pcb) of T = 300.22787

volFieldValue component_0 write:
    volAverage(component_0) of T = 328.12683

volFieldValue component_1 write:
    volAverage(component_1) of T = 302.79534

volFieldValue component_2 write:
    volAverage(component_2) of T = 305.52138

volFieldValue component_3 write:
    volAverage(component_3) of T = 304.07326

volFieldValue component_4 write:
    volAverage(component_4) of T = 302.9201

Time = 8


Solving for fluid region fluid
DILUPBiCGStab:  Solving for Ux, Initial residual = 0.081820356, Final residual = 0.0018143212, No Iterations 2
DILUPBiCGStab:  Solving for Uy, Initial residual = 0.075059693, Final residual = 0.001911805, No Iterations 2

Solving energy coupled regions
Using lduPrimitiveAssembly: lduAssembly456789
DILUPBiCGStab:  Solving for h, Initial residual = 0.012232789, Final residual = 0.00020835448, No Iterations 1
limitTemperature=limitT, Type=Lower, LimitedCells=0, CellsPercent=0, Tmin=250, UnlimitedTmin=299.99768
limitTemperature=limitT, Type=Upper, LimitedCells=0, CellsPercent=0, Tmax=6000, UnlimitedTmax=301.10194
limitTemperature=limitT, Type=Lower, LimitedCells=0, CellsPercent=0, Tmin=250, UnlimitedTmin=299.99907
limitTemperature=limitT, Type=Upper, LimitedCells=0, CellsPercent=0, Tmax=6000, UnlimitedTmax=305.52388
limitTemperature=limitT, Type=Lower, LimitedCells=0, CellsPercent=0, Tmin=250, UnlimitedTmin=318.74052
limitTemperature=limitT, Type=Upper, LimitedCells=0, CellsPercent=0, Tmax=600, UnlimitedTmax=332.93997
limitTemperature=limitT, Type=Lower, LimitedCells=0, CellsPercent=0, Tmin=250, UnlimitedTmin=302.4543
limitTemperature=limitT, Type=Upper, LimitedCells=0, CellsPercent=0, Tmax=600, UnlimitedTmax=303.02817
limitTemperature=limitT, Type=Lower, LimitedCells=0, CellsPercent=0, Tmin=250, UnlimitedTmin=302.87506
limitTemperature=limitT, Type=Upper, LimitedCells=0, CellsPercent=0, Tmax=600, UnlimitedTmax=306.33228
limitTemperature=limitT, Type=Lower, LimitedCells=0, CellsPercent=0, Tmin=250, UnlimitedTmin=303.18238
limitTemperature=limitT, Type=Upper, LimitedCells=0, CellsPercent=0, Tmax=600, UnlimitedTmax=304.48433
limitTemperature=limitT, Type=Lower, LimitedCells=0, CellsPercent=0, Tmin=250, UnlimitedTmin=302.50377
limitTemperature=limitT, Type=Upper, LimitedCells=0, CellsPercent=0, Tmax=600, UnlimitedTmax=303.19142
DICPBiCGStab:  Solving for p_rgh, Initial residual = 0.2077682, Final residual = 0.018417583, No Iterations 111
time step continuity errors : sum local = 0.03076438, global = -0.019876264, cumulative = 0.040916948
Min/max rho:1.080586 1.1771601
DILUPBiCGStab:  Solving for epsilon, Initial residual = 0.10328036, Final residual = 0.0018944233, No Iterations 1
DILUPBiCGStab:  Solving for k, Initial residual = 0.22143838, Final residual = 0.008045639, No Iterations 1
ExecutionTime = 1.08 s  ClockTime = 2 s

volFieldValue fluid write:
    volAverage(fluid) of T = 300.00669

volFieldValue pcb write:
    volAverage(pcb) of T = 300.28331

volFieldValue component_0 write:
    volAverage(component_0) of T = 330.97313

volFieldValue component_1 write:
    volAverage(component_1) of T = 303.16629

volFieldValue component_2 write:
    volAverage(component_2) of T = 306.2054

volFieldValue component_3 write:
    volAverage(component_3) of T = 304.60063

volFieldValue component_4 write:
    volAverage(component_4) of T = 303.31045

Time = 9


Solving for fluid region fluid
DILUPBiCGStab:  Solving for Ux, Initial residual = 0.21302071, Final residual = 0.0051044586, No Iterations 2
DILUPBiCGStab:  Solving for Uy, Initial residual = 0.17376161, Final residual = 0.0036203953, No Iterations 2

Solving energy coupled regions
Using lduPrimitiveAssembly: lduAssembly456789
DILUPBiCGStab:  Solving for h, Initial residual = 0.012765827, Final residual = 0.00023575607, No Iterations 1
limitTemperature=limitT, Type=Lower, LimitedCells=0, CellsPercent=0, Tmin=250, UnlimitedTmin=299.99726
limitTemperature=limitT, Type=Upper, LimitedCells=0, CellsPercent=0, Tmax=6000, UnlimitedTmax=301.56202
limitTemperature=limitT, Type=Lower, LimitedCells=0, CellsPercent=0, Tmin=250, UnlimitedTmin=299.99908
limitTemperature=limitT, Type=Upper, LimitedCells=0, CellsPercent=0, Tmax=6000, UnlimitedTmax=306.6714
limitTemperature=limitT, Type=Lower, LimitedCells=0, CellsPercent=0, Tmin=250, UnlimitedTmin=321.0228
limitTemperature=limitT, Type=Upper, LimitedCells=0, CellsPercent=0, Tmax=600, UnlimitedTmax=336.12109
limitTemperature=limitT, Type=Lower, LimitedCells=0, CellsPercent=0, Tmin=250, UnlimitedTmin=302.74927
limitTemperature=limitT, Type=Upper, LimitedCells=0, CellsPercent=0, Tmax=600, UnlimitedTmax=303.41827
limitTemperature=limitT, Type=Lower, LimitedCells=0, CellsPercent=0, Tmin=250, UnlimitedTmin=303.18696
limitTemperature=limitT, Type=Upper, LimitedCells=0, CellsPercent=0, Tmax=600, UnlimitedTmax=307.15348
limitTemperature=limitT, Type=Lower, LimitedCells=0, CellsPercent=0, Tmin=250, UnlimitedTmin=303.59176
limitTemperature=limitT, Type=Upper, LimitedCells=0, CellsPercent=0, Tmax=600, UnlimitedTmax=305.07422
limitTemperature=limitT, Type=Lower, LimitedCells=0, CellsPercent=0, Tmin=250, UnlimitedTmin=302.81148
limitTemperature=limitT, Type=Upper, LimitedCells=0, CellsPercent=0, Tmax=600, UnlimitedTmax=303.60308
DICPBiCGStab:  Solving for p_rgh, Initial residual = 0.10175362, Final residual = 0.0094179361, No Iterations 13
time step continuity errors : sum local = 0.04726335, global = 0.023604517, cumulative = 0.064521465
Min/max rho:1.0700362 1.176679
DILUPBiCGStab:  Solving for epsilon, Initial residual = 0.063624462, Final residual = 0.0017160206, No Iterations 1
DILUPBiCGStab:  Solving for k, Initial residual = 0.17818626, Final residual = 0.0077191811, No Iterations 1
ExecutionTime = 1.12 s  ClockTime = 2 s

volFieldValue fluid write:
    volAverage(fluid) of T = 300.00822

volFieldValue pcb write:
    volAverage(pcb) of T = 300.34369

volFieldValue component_0 write:
    volAverage(component_0) of T = 333.59766

volFieldValue component_1 write:
    volAverage(component_1) of T = 303.53605

volFieldValue component_2 write:
    volAverage(component_2) of T = 306.87701

volFieldValue component_3 write:
    volAverage(component_3) of T = 305.12178

volFieldValue component_4 write:
    volAverage(component_4) of T = 303.69803

Time = 10


Solving for fluid region fluid
DILUPBiCGStab:  Solving for Ux, Initial residual = 0.22524695, Final residual = 0.0053266718, No Iterations 2
DILUPBiCGStab:  Solving for Uy, Initial residual = 0.13568884, Final residual = 0.0027842844, No Iterations 2

Solving energy coupled regions
Using lduPrimitiveAssembly: lduAssembly456789
DILUPBiCGStab:  Solving for h, Initial residual = 0.012548274, Final residual = 0.00021429102, No Iterations 1
limitTemperature=limitT, Type=Lower, LimitedCells=0, CellsPercent=0, Tmin=250, UnlimitedTmin=299.99714
limitTemperature=limitT, Type=Upper, LimitedCells=0, CellsPercent=0, Tmax=6000, UnlimitedTmax=301.17318
limitTemperature=limitT, Type=Lower, LimitedCells=0, CellsPercent=0, Tmin=250, UnlimitedTmin=299.99925
limitTemperature=limitT, Type=Upper, LimitedCells=0, CellsPercent=0, Tmax=6000, UnlimitedTmax=307.87274
limitTemperature=limitT, Type=Lower, LimitedCells=0, CellsPercent=0, Tmin=250, UnlimitedTmin=322.48869
limitTemperature=limitT, Type=Upper, LimitedCells=0, CellsPercent=0, Tmax=600, UnlimitedTmax=339.23486
limitTemperature=limitT, Type=Lower, LimitedCells=0, CellsPercent=0, Tmin=250, UnlimitedTmin=303.09069
limitTemperature=limitT, Type=Upper, LimitedCells=0, CellsPercent=0, Tmax=600, UnlimitedTmax=303.80729
limitTemperature=limitT, Type=Lower, LimitedCells=0, CellsPercent=0, Tmin=250, UnlimitedTmin=303.37435
limitTemperature=limitT, Type=Upper, LimitedCells=0, CellsPercent=0, Tmax=600, UnlimitedTmax=307.9626
limitTemperature=limitT, Type=Lower, LimitedCells=0, CellsPercent=0, Tmin=250, UnlimitedTmin=303.99148
limitTemperature=limitT, Type=Upper, LimitedCells=0, CellsPercent=0, Tmax=600, UnlimitedTmax=305.6545
limitTemperature=limitT, Type=Lower, LimitedCells=0, CellsPercent=0, Tmin=250, UnlimitedTmin=303.12138
limitTemperature=limitT, Type=Upper, LimitedCells=0, CellsPercent=0, Tmax=600, UnlimitedTmax=304.01118
DICPBiCGStab:  Solving for p_rgh, Initial residual = 0.16090725, Final residual = 0.015747648, No Iterations 17
time step continuity errors : sum local = 0.060318517, global = 0.010390827, cumulative = 0.074912292
Min/max rho:1.059702 1.1766634
DILUPBiCGStab:  Solving for epsilon, Initial residual = 0.048375278, Final residual = 0.0014849609, No Iterations 1
DILUPBiCGStab:  Solving for k, Initial residual = 0.15853265, Final residual = 0.0078712215, No Iterations 1
ExecutionTime = 1.19 s  ClockTime = 2 s

volFieldValue fluid write:
    volAverage(fluid) of T = 300.00982

volFieldValue pcb write:
    volAverage(pcb) of T = 300.40887

volFieldValue component_0 write:
    volAverage(component_0) of T = 336.18953

volFieldValue component_1 write:
    volAverage(component_1) of T = 303.90332

volFieldValue component_2 write:
    volAverage(component_2) of T = 307.54116

volFieldValue component_3 write:
    volAverage(component_3) of T = 305.64061

volFieldValue component_4 write:
    volAverage(component_4) of T = 304.08368

Time = 11


Solving for fluid region fluid
DILUPBiCGStab:  Solving for Ux, Initial residual = 0.25453557, Final residual = 0.0071427807, No Iterations 2
DILUPBiCGStab:  Solving for Uy, Initial residual = 0.12376098, Final residual = 0.00273823, No Iterations 2

Solving energy coupled regions
Using lduPrimitiveAssembly: lduAssembly456789
DILUPBiCGStab:  Solving for h, Initial residual = 0.012879104, Final residual = 0.00023870068, No Iterations 1
limitTemperature=limitT, Type=Lower, LimitedCells=0, CellsPercent=0, Tmin=250, UnlimitedTmin=299.99716
limitTemperature=limitT, Type=Upper, LimitedCells=0, CellsPercent=0, Tmax=6000, UnlimitedTmax=301.34893
limitTemperature=limitT, Type=Lower, LimitedCells=0, CellsPercent=0, Tmin=250, UnlimitedTmin=299.99918
limitTemperature=limitT, Type=Upper, LimitedCells=0, CellsPercent=0, Tmax=6000, UnlimitedTmax=309.1199
limitTemperature=limitT, Type=Lower, LimitedCells=0, CellsPercent=0, Tmin=250, UnlimitedTmin=324.08291
limitTemperature=limitT, Type=Upper, LimitedCells=0, CellsPercent=0, Tmax=600, UnlimitedTmax=342.27223
limitTemperature=limitT, Type=Lower, LimitedCells=0, CellsPercent=0, Tmin=250, UnlimitedTmin=303.33997
limitTemperature=limitT, Type=Upper, LimitedCells=0, CellsPercent=0, Tmax=600, UnlimitedTmax=304.19431
limitTemperature=limitT, Type=Lower, LimitedCells=0, CellsPercent=0, Tmin=250, UnlimitedTmin=303.6173
limitTemperature=limitT, Type=Upper, LimitedCells=0, CellsPercent=0, Tmax=600, UnlimitedTmax=308.76031
limitTemperature=limitT, Type=Lower, LimitedCells=0, CellsPercent=0, Tmin=250, UnlimitedTmin=304.38962
limitTemperature=limitT, Type=Upper, LimitedCells=0, CellsPercent=0, Tmax=600, UnlimitedTmax=306.22577
limitTemperature=limitT, Type=Lower, LimitedCells=0, CellsPercent=0, Tmin=250, UnlimitedTmin=303.4304
limitTemperature=limitT, Type=Upper, LimitedCells=0, CellsPercent=0, Tmax=600, UnlimitedTmax=304.42136
DICPBiCGStab:  Solving for p_rgh, Initial residual = 0.1564868, Final residual = 0.015391764, No Iterations 21
time step continuity errors : sum local = 0.063625498, global = -0.014918293, cumulative = 0.059993999
Min/max rho:1.0498662 1.1766567
DILUPBiCGStab:  Solving for epsilon, Initial residual = 0.038180253, Final residual = 0.0012091693, No Iterations 1
DILUPBiCGStab:  Solving for k, Initial residual = 0.13544356, Final residual = 0.0060971545, No Iterations 1
ExecutionTime = 1.27 s  ClockTime = 2 s

volFieldValue fluid write:
    volAverage(fluid) of T = 300.01171

volFieldValue pcb write:
    volAverage(pcb) of T = 300.4797

volFieldValue component_0 write:
    volAverage(component_0) of T = 338.69406

volFieldValue component_1 write:
    volAverage(component_1) of T = 304.26292

volFieldValue component_2 write:
    volAverage(component_2) of T = 308.19455

volFieldValue component_3 write:
    volAverage(component_3) of T = 306.15204

volFieldValue component_4 write:
    volAverage(component_4) of T = 304.46515

Time = 12


Solving for fluid region fluid
DILUPBiCGStab:  Solving for Ux, Initial residual = 0.26619172, Final residual = 0.0053221814, No Iterations 2
DILUPBiCGStab:  Solving for Uy, Initial residual = 0.12486504, Final residual = 0.0038546539, No Iterations 2

Solving energy coupled regions
Using lduPrimitiveAssembly: lduAssembly456789
DILUPBiCGStab:  Solving for h, Initial residual = 0.013181176, Final residual = 0.00025915032, No Iterations 1
limitTemperature=limitT, Type=Lower, LimitedCells=0, CellsPercent=0, Tmin=250, UnlimitedTmin=299.99724
limitTemperature=limitT, Type=Upper, LimitedCells=0, CellsPercent=0, Tmax=6000, UnlimitedTmax=303.18813
limitTemperature=limitT, Type=Lower, LimitedCells=0, CellsPercent=0, Tmin=250, UnlimitedTmin=299.99909
limitTemperature=limitT, Type=Upper, LimitedCells=0, CellsPercent=0, Tmax=6000, UnlimitedTmax=310.40457
limitTemperature=limitT, Type=Lower, LimitedCells=0, CellsPercent=0, Tmin=250, UnlimitedTmin=325.93249
limitTemperature=limitT, Type=Upper, LimitedCells=0, CellsPercent=0, Tmax=600, UnlimitedTmax=345.14934
limitTemperature=limitT, Type=Lower, LimitedCells=0, CellsPercent=0, Tmin=250, UnlimitedTmin=303.56818
limitTemperature=limitT, Type=Upper, LimitedCells=0, CellsPercent=0, Tmax=600, UnlimitedTmax=304.57837
limitTemperature=limitT, Type=Lower, LimitedCells=0, CellsPercent=0, Tmin=250, UnlimitedTmin=303.85358
limitTemperature=limitT, Type=Upper, LimitedCells=0, CellsPercent=0, Tmax=600, UnlimitedTmax=309.54562
limitTemperature=limitT, Type=Lower, LimitedCells=0, CellsPercent=0, Tmin=250, UnlimitedTmin=304.78797
limitTemperature=limitT, Type=Upper, LimitedCells=0, CellsPercent=0, Tmax=600, UnlimitedTmax=306.78789
limitTemperature=limitT, Type=Lower, LimitedCells=0, CellsPercent=0, Tmin=250, UnlimitedTmin=303.74013
limitTemperature=limitT, Type=Upper, LimitedCells=0, CellsPercent=0, Tmax=600, UnlimitedTmax=304.82648
DICPBiCGStab:  Solving for p_rgh, Initial residual = 0.12032238, Final residual = 0.0118218, No Iterations 55
time step continuity errors : sum local = 0.057942433, global = -0.051348716, cumulative = 0.0086452827
Min/max rho:1.040882 1.1766569
DILUPBiCGStab:  Solving for epsilon, Initial residual = 0.029325619, Final residual = 0.00089110549, No Iterations 1
DILUPBiCGStab:  Solving for k, Initial residual = 0.11726162, Final residual = 0.0053350606, No Iterations 1
ExecutionTime = 1.36 s  ClockTime = 2 s

volFieldValue fluid write:
    volAverage(fluid) of T = 300.01359

volFieldValue pcb write:
    volAverage(pcb) of T = 300.55488

volFieldValue component_0 write:
    volAverage(component_0) of T = 340.88877

volFieldValue component_1 write:
    volAverage(component_1) of T = 304.61688

volFieldValue component_2 write:
    volAverage(component_2) of T = 308.84308

volFieldValue component_3 write:
    volAverage(component_3) of T = 306.65738

volFieldValue component_4 write:
    volAverage(component_4) of T = 304.84149

Time = 13


Solving for fluid region fluid
DILUPBiCGStab:  Solving for Ux, Initial residual = 0.23376501, Final residual = 0.0042805205, No Iterations 2
DILUPBiCGStab:  Solving for Uy, Initial residual = 0.13026971, Final residual = 0.0029367008, No Iterations 2

Solving energy coupled regions
Using lduPrimitiveAssembly: lduAssembly456789
DILUPBiCGStab:  Solving for h, Initial residual = 0.013356103, Final residual = 0.00027166371, No Iterations 1
limitTemperature=limitT, Type=Lower, LimitedCells=0, CellsPercent=0, Tmin=250, UnlimitedTmin=299.99728
limitTemperature=limitT, Type=Upper, LimitedCells=0, CellsPercent=0, Tmax=6000, UnlimitedTmax=302.24979
limitTemperature=limitT, Type=Lower, LimitedCells=0, CellsPercent=0, Tmin=250, UnlimitedTmin=299.99932
limitTemperature=limitT, Type=Upper, LimitedCells=0, CellsPercent=0, Tmax=6000, UnlimitedTmax=311.71459
limitTemperature=limitT, Type=Lower, LimitedCells=0, CellsPercent=0, Tmin=250, UnlimitedTmin=327.70933
limitTemperature=limitT, Type=Upper, LimitedCells=0, CellsPercent=0, Tmax=600, UnlimitedTmax=347.79647
limitTemperature=limitT, Type=Lower, LimitedCells=0, CellsPercent=0, Tmin=250, UnlimitedTmin=303.84465
limitTemperature=limitT, Type=Upper, LimitedCells=0, CellsPercent=0, Tmax=600, UnlimitedTmax=304.96071
limitTemperature=limitT, Type=Lower, LimitedCells=0, CellsPercent=0, Tmin=250, UnlimitedTmin=304.06582
limitTemperature=limitT, Type=Upper, LimitedCells=0, CellsPercent=0, Tmax=600, UnlimitedTmax=310.32567
limitTemperature=limitT, Type=Lower, LimitedCells=0, CellsPercent=0, Tmin=250, UnlimitedTmin=305.08056
limitTemperature=limitT, Type=Upper, LimitedCells=0, CellsPercent=0, Tmax=600, UnlimitedTmax=307.34126
limitTemperature=limitT, Type=Lower, LimitedCells=0, CellsPercent=0, Tmin=250, UnlimitedTmin=304.05306
limitTemperature=limitT, Type=Upper, LimitedCells=0, CellsPercent=0, Tmax=600, UnlimitedTmax=305.2278
DICPBiCGStab:  Solving for p_rgh, Initial residual = 0.080824677, Final residual = 0.0078798338, No Iterations 73
time step continuity errors : sum local = 0.054084198, global = -0.054084198, cumulative = -0.045438915
Min/max rho:1.0327234 1.1766573
DILUPBiCGStab:  Solving for epsilon, Initial residual = 0.024135514, Final residual = 0.00068087302, No Iterations 1
DILUPBiCGStab:  Solving for k, Initial residual = 0.10136079, Final residual = 0.0045100134, No Iterations 1
ExecutionTime = 1.47 s  ClockTime = 2 s

volFieldValue fluid write:
    volAverage(fluid) of T = 300.01564

volFieldValue pcb write:
    volAverage(pcb) of T = 300.63351

volFieldValue component_0 write:
    volAverage(component_0) of T = 342.71665

volFieldValue component_1 write:
    volAverage(component_1) of T = 304.96598

volFieldValue component_2 write:
    volAverage(component_2) of T = 309.46314

volFieldValue component_3 write:
    volAverage(component_3) of T = 307.15555

volFieldValue component_4 write:
    volAverage(component_4) of T = 305.21382

Time = 14


Solving for fluid region fluid
DILUPBiCGStab:  Solving for Ux, Initial residual = 0.17586488, Final residual = 0.0031634285, No Iterations 2
DILUPBiCGStab:  Solving for Uy, Initial residual = 0.14253032, Final residual = 0.0029086705, No Iterations 2

Solving energy coupled regions
Using lduPrimitiveAssembly: lduAssembly456789
DILUPBiCGStab:  Solving for h, Initial residual = 0.013413224, Final residual = 0.00027306219, No Iterations 1
limitTemperature=limitT, Type=Lower, LimitedCells=0, CellsPercent=0, Tmin=250, UnlimitedTmin=299.99716
limitTemperature=limitT, Type=Upper, LimitedCells=0, CellsPercent=0, Tmax=6000, UnlimitedTmax=302.05064
limitTemperature=limitT, Type=Lower, LimitedCells=0, CellsPercent=0, Tmin=250, UnlimitedTmin=299.9998
limitTemperature=limitT, Type=Upper, LimitedCells=0, CellsPercent=0, Tmax=6000, UnlimitedTmax=313.03188
limitTemperature=limitT, Type=Lower, LimitedCells=0, CellsPercent=0, Tmin=250, UnlimitedTmin=328.98998
limitTemperature=limitT, Type=Upper, LimitedCells=0, CellsPercent=0, Tmax=600, UnlimitedTmax=350.08395
limitTemperature=limitT, Type=Lower, LimitedCells=0, CellsPercent=0, Tmin=250, UnlimitedTmin=304.17473
limitTemperature=limitT, Type=Upper, LimitedCells=0, CellsPercent=0, Tmax=600, UnlimitedTmax=305.33961
limitTemperature=limitT, Type=Lower, LimitedCells=0, CellsPercent=0, Tmin=250, UnlimitedTmin=304.20141
limitTemperature=limitT, Type=Upper, LimitedCells=0, CellsPercent=0, Tmax=600, UnlimitedTmax=311.10131
limitTemperature=limitT, Type=Lower, LimitedCells=0, CellsPercent=0, Tmin=250, UnlimitedTmin=305.11596
limitTemperature=limitT, Type=Upper, LimitedCells=0, CellsPercent=0, Tmax=600, UnlimitedTmax=307.88692
limitTemperature=limitT, Type=Lower, LimitedCells=0, CellsPercent=0, Tmin=250, UnlimitedTmin=304.28074
limitTemperature=limitT, Type=Upper, LimitedCells=0, CellsPercent=0, Tmax=600, UnlimitedTmax=305.63011
DICPBiCGStab:  Solving for p_rgh, Initial residual = 0.09913473, Final residual = 0.0097777357, No Iterations 63
time step continuity errors : sum local = 0.059073414, global = -0.016312156, cumulative = -0.061751071
Min/max rho:1.0260678 1.1766574
DILUPBiCGStab:  Solving for epsilon, Initial residual = 0.019146772, Final residual = 0.00067636721, No Iterations 1
DILUPBiCGStab:  Solving for k, Initial residual = 0.091767291, Final residual = 0.0010278443, No Iterations 2
ExecutionTime = 1.57 s  ClockTime = 2 s

volFieldValue fluid write:
    volAverage(fluid) of T = 300.01845

volFieldValue pcb write:
    volAverage(pcb) of T = 300.7159

volFieldValue component_0 write:
    volAverage(component_0) of T = 344.34567

volFieldValue component_1 write:
    volAverage(component_1) of T = 305.30731

volFieldValue component_2 write:
    volAverage(component_2) of T = 310.05581

volFieldValue component_3 write:
    volAverage(component_3) of T = 307.64932

volFieldValue component_4 write:
    volAverage(component_4) of T = 305.57631

Time = 15


Solving for fluid region fluid
DILUPBiCGStab:  Solving for Ux, Initial residual = 0.13821332, Final residual = 0.0031350475, No Iterations 2
DILUPBiCGStab:  Solving for Uy, Initial residual = 0.17297837, Final residual = 0.0034962322, No Iterations 2

Solving energy coupled regions
Using lduPrimitiveAssembly: lduAssembly456789
DILUPBiCGStab:  Solving for h, Initial residual = 0.013559123, Final residual = 0.00029978594, No Iterations 1
limitTemperature=limitT, Type=Lower, LimitedCells=0, CellsPercent=0, Tmin=250, UnlimitedTmin=299.99712
limitTemperature=limitT, Type=Upper, LimitedCells=0, CellsPercent=0, Tmax=6000, UnlimitedTmax=302.45604
limitTemperature=limitT, Type=Lower, LimitedCells=0, CellsPercent=0, Tmin=250, UnlimitedTmin=300.00011
limitTemperature=limitT, Type=Upper, LimitedCells=0, CellsPercent=0, Tmax=6000, UnlimitedTmax=314.3503
limitTemperature=limitT, Type=Lower, LimitedCells=0, CellsPercent=0, Tmin=250, UnlimitedTmin=329.42446
limitTemperature=limitT, Type=Upper, LimitedCells=0, CellsPercent=0, Tmax=600, UnlimitedTmax=352.19665
limitTemperature=limitT, Type=Lower, LimitedCells=0, CellsPercent=0, Tmin=250, UnlimitedTmin=304.39036
limitTemperature=limitT, Type=Upper, LimitedCells=0, CellsPercent=0, Tmax=600, UnlimitedTmax=305.71596
limitTemperature=limitT, Type=Lower, LimitedCells=0, CellsPercent=0, Tmin=250, UnlimitedTmin=304.1279
limitTemperature=limitT, Type=Upper, LimitedCells=0, CellsPercent=0, Tmax=600, UnlimitedTmax=311.86679
limitTemperature=limitT, Type=Lower, LimitedCells=0, CellsPercent=0, Tmin=250, UnlimitedTmin=305.32422
limitTemperature=limitT, Type=Upper, LimitedCells=0, CellsPercent=0, Tmax=600, UnlimitedTmax=308.42619
limitTemperature=limitT, Type=Lower, LimitedCells=0, CellsPercent=0, Tmin=250, UnlimitedTmin=304.38358
limitTemperature=limitT, Type=Upper, LimitedCells=0, CellsPercent=0, Tmax=600, UnlimitedTmax=306.03315
DICPBiCGStab:  Solving for p_rgh, Initial residual = 0.77105011, Final residual = 0.075491793, No Iterations 75
time step continuity errors : sum local = 0.058269198, global = -0.019044091, cumulative = -0.080795162
Min/max rho:1.0202264 1.1766675
DILUPBiCGStab:  Solving for epsilon, Initial residual = 0.01706303, Final residual = 0.00063420605, No Iterations 1
DILUPBiCGStab:  Solving for k, Initial residual = 0.076253223, Final residual = 0.0011749857, No Iterations 2
ExecutionTime = 1.67 s  ClockTime = 2 s

volFieldValue fluid write:
    volAverage(fluid) of T = 300.02131

volFieldValue pcb write:
    volAverage(pcb) of T = 300.80327

volFieldValue component_0 write:
    volAverage(component_0) of T = 345.75109

volFieldValue component_1 write:
    volAverage(component_1) of T = 305.64102

volFieldValue component_2 write:
    volAverage(component_2) of T = 310.62546

volFieldValue component_3 write:
    volAverage(component_3) of T = 308.13769

volFieldValue component_4 write:
    volAverage(component_4) of T = 305.92838

Time = 16


Solving for fluid region fluid
DILUPBiCGStab:  Solving for Ux, Initial residual = 0.15296727, Final residual = 0.0033353652, No Iterations 2
DILUPBiCGStab:  Solving for Uy, Initial residual = 0.14579254, Final residual = 0.0050414689, No Iterations 2

Solving energy coupled regions
Using lduPrimitiveAssembly: lduAssembly456789
DILUPBiCGStab:  Solving for h, Initial residual = 0.01371586, Final residual = 0.0003158449, No Iterations 1
limitTemperature=limitT, Type=Lower, LimitedCells=0, CellsPercent=0, Tmin=250, UnlimitedTmin=299.99634
limitTemperature=limitT, Type=Upper, LimitedCells=0, CellsPercent=0, Tmax=6000, UnlimitedTmax=302.28831
limitTemperature=limitT, Type=Lower, LimitedCells=0, CellsPercent=0, Tmin=250, UnlimitedTmin=300.0003
limitTemperature=limitT, Type=Upper, LimitedCells=0, CellsPercent=0, Tmax=6000, UnlimitedTmax=315.68109
limitTemperature=limitT, Type=Lower, LimitedCells=0, CellsPercent=0, Tmin=250, UnlimitedTmin=329.48451
limitTemperature=limitT, Type=Upper, LimitedCells=0, CellsPercent=0, Tmax=600, UnlimitedTmax=354.1506
limitTemperature=limitT, Type=Lower, LimitedCells=0, CellsPercent=0, Tmin=250, UnlimitedTmin=304.53693
limitTemperature=limitT, Type=Upper, LimitedCells=0, CellsPercent=0, Tmax=600, UnlimitedTmax=306.09104
limitTemperature=limitT, Type=Lower, LimitedCells=0, CellsPercent=0, Tmin=250, UnlimitedTmin=304.22944
limitTemperature=limitT, Type=Upper, LimitedCells=0, CellsPercent=0, Tmax=600, UnlimitedTmax=312.62023
limitTemperature=limitT, Type=Lower, LimitedCells=0, CellsPercent=0, Tmin=250, UnlimitedTmin=305.71624
limitTemperature=limitT, Type=Upper, LimitedCells=0, CellsPercent=0, Tmax=600, UnlimitedTmax=308.96032
limitTemperature=limitT, Type=Lower, LimitedCells=0, CellsPercent=0, Tmin=250, UnlimitedTmin=304.46083
limitTemperature=limitT, Type=Upper, LimitedCells=0, CellsPercent=0, Tmax=600, UnlimitedTmax=306.43533
DICPBiCGStab:  Solving for p_rgh, Initial residual = 0.15030561, Final residual = 0.015003201, No Iterations 44
time step continuity errors : sum local = 0.060504511, global = -0.05912472, cumulative = -0.13991988
Min/max rho:1.0150164 1.1769167
DILUPBiCGStab:  Solving for epsilon, Initial residual = 0.015436282, Final residual = 0.00045959031, No Iterations 1
DILUPBiCGStab:  Solving for k, Initial residual = 0.074309084, Final residual = 0.0031547846, No Iterations 1
ExecutionTime = 1.77 s  ClockTime = 2 s

volFieldValue fluid write:
    volAverage(fluid) of T = 300.02437

volFieldValue pcb write:
    volAverage(pcb) of T = 300.89282

volFieldValue component_0 write:
    volAverage(component_0) of T = 347.03796

volFieldValue component_1 write:
    volAverage(component_1) of T = 305.96826

volFieldValue component_2 write:
    volAverage(component_2) of T = 311.22078

volFieldValue component_3 write:
    volAverage(component_3) of T = 308.62766

volFieldValue component_4 write:
    volAverage(component_4) of T = 306.27511

Time = 17


Solving for fluid region fluid
DILUPBiCGStab:  Solving for Ux, Initial residual = 0.17110068, Final residual = 0.0031527998, No Iterations 2
DILUPBiCGStab:  Solving for Uy, Initial residual = 0.12440472, Final residual = 0.0021414571, No Iterations 2

Solving energy coupled regions
Using lduPrimitiveAssembly: lduAssembly456789
DILUPBiCGStab:  Solving for h, Initial residual = 0.013969718, Final residual = 0.00028452622, No Iterations 1
limitTemperature=limitT, Type=Lower, LimitedCells=0, CellsPercent=0, Tmin=250, UnlimitedTmin=299.99682
limitTemperature=limitT, Type=Upper, LimitedCells=0, CellsPercent=0, Tmax=6000, UnlimitedTmax=302.62183
limitTemperature=limitT, Type=Lower, LimitedCells=0, CellsPercent=0, Tmin=250, UnlimitedTmin=300.00045
limitTemperature=limitT, Type=Upper, LimitedCells=0, CellsPercent=0, Tmax=6000, UnlimitedTmax=317.01966
limitTemperature=limitT, Type=Lower, LimitedCells=0, CellsPercent=0, Tmin=250, UnlimitedTmin=329.32488
limitTemperature=limitT, Type=Upper, LimitedCells=0, CellsPercent=0, Tmax=600, UnlimitedTmax=356.14569
limitTemperature=limitT, Type=Lower, LimitedCells=0, CellsPercent=0, Tmin=250, UnlimitedTmin=304.68089
limitTemperature=limitT, Type=Upper, LimitedCells=0, CellsPercent=0, Tmax=600, UnlimitedTmax=306.46179
limitTemperature=limitT, Type=Lower, LimitedCells=0, CellsPercent=0, Tmin=250, UnlimitedTmin=304.41657
limitTemperature=limitT, Type=Upper, LimitedCells=0, CellsPercent=0, Tmax=600, UnlimitedTmax=313.36487
limitTemperature=limitT, Type=Lower, LimitedCells=0, CellsPercent=0, Tmin=250, UnlimitedTmin=306.13377
limitTemperature=limitT, Type=Upper, LimitedCells=0, CellsPercent=0, Tmax=600, UnlimitedTmax=309.48948
limitTemperature=limitT, Type=Lower, LimitedCells=0, CellsPercent=0, Tmin=250, UnlimitedTmin=304.61882
limitTemperature=limitT, Type=Upper, LimitedCells=0, CellsPercent=0, Tmax=600, UnlimitedTmax=306.83681
DICPBiCGStab:  Solving for p_rgh, Initial residual = 0.095571084, Final residual = 0.0092054882, No Iterations 38
time step continuity errors : sum local = 0.060984764, global = -0.011181412, cumulative = -0.15110129
Min/max rho:1.0090201 1.1770648
DILUPBiCGStab:  Solving for epsilon, Initial residual = 0.013997061, Final residual = 0.00053503834, No Iterations 1
DILUPBiCGStab:  Solving for k, Initial residual = 0.070594821, Final residual = 0.0008732806, No Iterations 2
ExecutionTime = 1.85 s  ClockTime = 2 s

volFieldValue fluid write:
    volAverage(fluid) of T = 300.02705

volFieldValue pcb write:
    volAverage(pcb) of T = 300.98252

volFieldValue component_0 write:
    volAverage(component_0) of T = 348.38928

volFieldValue component_1 write:
    volAverage(component_1) of T = 306.29776

volFieldValue component_2 write:
    volAverage(component_2) of T = 311.79792

volFieldValue component_3 write:
    volAverage(component_3) of T = 309.10696

volFieldValue component_4 write:
    volAverage(component_4) of T = 306.62125

Time = 18


Solving for fluid region fluid
DILUPBiCGStab:  Solving for Ux, Initial residual = 0.1793313, Final residual = 0.0044352287, No Iterations 2
DILUPBiCGStab:  Solving for Uy, Initial residual = 0.11720623, Final residual = 0.0046279272, No Iterations 2

Solving energy coupled regions
Using lduPrimitiveAssembly: lduAssembly456789
DILUPBiCGStab:  Solving for h, Initial residual = 0.014214721, Final residual = 0.00036425484, No Iterations 1
limitTemperature=limitT, Type=Lower, LimitedCells=0, CellsPercent=0, Tmin=250, UnlimitedTmin=299.99688
limitTemperature=limitT, Type=Upper, LimitedCells=0, CellsPercent=0, Tmax=6000, UnlimitedTmax=302.37377
limitTemperature=limitT, Type=Lower, LimitedCells=0, CellsPercent=0, Tmin=250, UnlimitedTmin=300.00065
limitTemperature=limitT, Type=Upper, LimitedCells=0, CellsPercent=0, Tmax=6000, UnlimitedTmax=318.33568
limitTemperature=limitT, Type=Lower, LimitedCells=0, CellsPercent=0, Tmin=250, UnlimitedTmin=330.09469
limitTemperature=limitT, Type=Upper, LimitedCells=0, CellsPercent=0, Tmax=600, UnlimitedTmax=358.06746
limitTemperature=limitT, Type=Lower, LimitedCells=0, CellsPercent=0, Tmin=250, UnlimitedTmin=304.8134
limitTemperature=limitT, Type=Upper, LimitedCells=0, CellsPercent=0, Tmax=600, UnlimitedTmax=306.82804
limitTemperature=limitT, Type=Lower, LimitedCells=0, CellsPercent=0, Tmin=250, UnlimitedTmin=304.7456
limitTemperature=limitT, Type=Upper, LimitedCells=0, CellsPercent=0, Tmax=600, UnlimitedTmax=314.0984
limitTemperature=limitT, Type=Lower, LimitedCells=0, CellsPercent=0, Tmin=250, UnlimitedTmin=306.51135
limitTemperature=limitT, Type=Upper, LimitedCells=0, CellsPercent=0, Tmax=600, UnlimitedTmax=310.01392
limitTemperature=limitT, Type=Lower, LimitedCells=0, CellsPercent=0, Tmin=250, UnlimitedTmin=304.73985
limitTemperature=limitT, Type=Upper, LimitedCells=0, CellsPercent=0, Tmax=600, UnlimitedTmax=307.2363
DICPBiCGStab:  Solving for p_rgh, Initial residual = 0.1311967, Final residual = 0.012998668, No Iterations 35
time step continuity errors : sum local = 0.053756103, global = -0.0044274594, cumulative = -0.15552875
Min/max rho:1.0038582 1.1771712
DILUPBiCGStab:  Solving for epsilon, Initial residual = 0.013391088, Final residual = 0.0005354623, No Iterations 1
DILUPBiCGStab:  Solving for k, Initial residual = 0.065685971, Final residual = 0.00092832456, No Iterations 2
ExecutionTime = 1.89 s  ClockTime = 2 s

volFieldValue fluid write:
    volAverage(fluid) of T = 300.02931

volFieldValue pcb write:
    volAverage(pcb) of T = 301.07708

volFieldValue component_0 write:
    volAverage(component_0) of T = 349.5057

volFieldValue component_1 write:
    volAverage(component_1) of T = 306.62093

volFieldValue component_2 write:
    volAverage(component_2) of T = 312.33154

volFieldValue component_3 write:
    volAverage(component_3) of T = 309.57505

volFieldValue component_4 write:
    volAverage(component_4) of T = 306.96522

Time = 19


Solving for fluid region fluid
DILUPBiCGStab:  Solving for Ux, Initial residual = 0.17479842, Final residual = 0.0046941444, No Iterations 2
DILUPBiCGStab:  Solving for Uy, Initial residual = 0.11819829, Final residual = 0.0025632882, No Iterations 2

Solving energy coupled regions
Using lduPrimitiveAssembly: lduAssembly456789
DILUPBiCGStab:  Solving for h, Initial residual = 0.014127917, Final residual = 0.00033320789, No Iterations 1
limitTemperature=limitT, Type=Lower, LimitedCells=0, CellsPercent=0, Tmin=250, UnlimitedTmin=299.9968
limitTemperature=limitT, Type=Upper, LimitedCells=0, CellsPercent=0, Tmax=6000, UnlimitedTmax=302.24932
limitTemperature=limitT, Type=Lower, LimitedCells=0, CellsPercent=0, Tmin=250, UnlimitedTmin=300.00089
limitTemperature=limitT, Type=Upper, LimitedCells=0, CellsPercent=0, Tmax=6000, UnlimitedTmax=319.6462
limitTemperature=limitT, Type=Lower, LimitedCells=0, CellsPercent=0, Tmin=250, UnlimitedTmin=330.59351
limitTemperature=limitT, Type=Upper, LimitedCells=0, CellsPercent=0, Tmax=600, UnlimitedTmax=359.65052
limitTemperature=limitT, Type=Lower, LimitedCells=0, CellsPercent=0, Tmin=250, UnlimitedTmin=305.05918
limitTemperature=limitT, Type=Upper, LimitedCells=0, CellsPercent=0, Tmax=600, UnlimitedTmax=307.19162
limitTemperature=limitT, Type=Lower, LimitedCells=0, CellsPercent=0, Tmin=250, UnlimitedTmin=304.5669
limitTemperature=limitT, Type=Upper, LimitedCells=0, CellsPercent=0, Tmax=600, UnlimitedTmax=314.82105
limitTemperature=limitT, Type=Lower, LimitedCells=0, CellsPercent=0, Tmin=250, UnlimitedTmin=306.8605
limitTemperature=limitT, Type=Upper, LimitedCells=0, CellsPercent=0, Tmax=600, UnlimitedTmax=310.53462
limitTemperature=limitT, Type=Lower, LimitedCells=0, CellsPercent=0, Tmin=250, UnlimitedTmin=304.91476
limitTemperature=limitT, Type=Upper, LimitedCells=0, CellsPercent=0, Tmax=600, UnlimitedTmax=307.63224
DICPBiCGStab:  Solving for p_rgh, Initial residual = 0.13214668, Final residual = 0.012959737, No Iterations 34
time step continuity errors : sum local = 0.0479102, global = -0.0050605373, cumulative = -0.16058929
Min/max rho:0.99988871 1.1772595
DILUPBiCGStab:  Solving for epsilon, Initial residual = 0.01438882, Final residual = 0.00060199828, No Iterations 1
DILUPBiCGStab:  Solving for k, Initial residual = 0.066079088, Final residual = 0.00200072, No Iterations 2
bounding k, min: -0.00066501987 max: 0.72316054 average: 0.042817245
ExecutionTime = 1.98 s  ClockTime = 2 s

volFieldValue fluid write:
    volAverage(fluid) of T = 300.03188

volFieldValue pcb write:
    volAverage(pcb) of T = 301.17416

volFieldValue component_0 write:
    volAverage(component_0) of T = 350.5641

volFieldValue component_1 write:
    volAverage(component_1) of T = 306.94501

volFieldValue component_2 write:
    volAverage(component_2) of T = 312.83255

volFieldValue component_3 write:
    volAverage(component_3) of T = 310.03366

volFieldValue component_4 write:
    volAverage(component_4) of T = 307.30755

Time = 20


Solving for fluid region fluid
DILUPBiCGStab:  Solving for Ux, Initial residual = 0.15665002, Final residual = 0.003494975, No Iterations 2
DILUPBiCGStab:  Solving for Uy, Initial residual = 0.11547352, Final residual = 0.0031777905, No Iterations 2

Solving energy coupled regions
Using lduPrimitiveAssembly: lduAssembly456789
DILUPBiCGStab:  Solving for h, Initial residual = 0.014212403, Final residual = 0.00035178007, No Iterations 1
limitTemperature=limitT, Type=Lower, LimitedCells=0, CellsPercent=0, Tmin=250, UnlimitedTmin=299.99671
limitTemperature=limitT, Type=Upper, LimitedCells=0, CellsPercent=0, Tmax=6000, UnlimitedTmax=302.66033
limitTemperature=limitT, Type=Lower, LimitedCells=0, CellsPercent=0, Tmin=250, UnlimitedTmin=300.00116
limitTemperature=limitT, Type=Upper, LimitedCells=0, CellsPercent=0, Tmax=6000, UnlimitedTmax=320.92116
limitTemperature=limitT, Type=Lower, LimitedCells=0, CellsPercent=0, Tmin=250, UnlimitedTmin=330.32979
limitTemperature=limitT, Type=Upper, LimitedCells=0, CellsPercent=0, Tmax=600, UnlimitedTmax=361.01865
limitTemperature=limitT, Type=Lower, LimitedCells=0, CellsPercent=0, Tmin=250, UnlimitedTmin=305.42916
limitTemperature=limitT, Type=Upper, LimitedCells=0, CellsPercent=0, Tmax=600, UnlimitedTmax=307.55083
limitTemperature=limitT, Type=Lower, LimitedCells=0, CellsPercent=0, Tmin=250, UnlimitedTmin=304.33723
limitTemperature=limitT, Type=Upper, LimitedCells=0, CellsPercent=0, Tmax=600, UnlimitedTmax=315.53324
limitTemperature=limitT, Type=Lower, LimitedCells=0, CellsPercent=0, Tmin=250, UnlimitedTmin=307.09131
limitTemperature=limitT, Type=Upper, LimitedCells=0, CellsPercent=0, Tmax=600, UnlimitedTmax=311.05083
limitTemperature=limitT, Type=Lower, LimitedCells=0, CellsPercent=0, Tmin=250, UnlimitedTmin=305.17143
limitTemperature=limitT, Type=Upper, LimitedCells=0, CellsPercent=0, Tmax=600, UnlimitedTmax=308.02503
DICPBiCGStab:  Solving for p_rgh, Initial residual = 0.1384824, Final residual = 0.013798288, No Iterations 20
time step continuity errors : sum local = 0.049038439, global = 0.026869588, cumulative = -0.1337197
Min/max rho:0.9964373 1.1773053
DILUPBiCGStab:  Solving for epsilon, Initial residual = 0.013810323, Final residual = 0.00063169174, No Iterations 1
DILUPBiCGStab:  Solving for k, Initial residual = 0.065566851, Final residual = 0.00096227553, No Iterations 2
ExecutionTime = 2.07 s  ClockTime = 3 s

volFieldValue fluid write:
    volAverage(fluid) of T = 300.0351

volFieldValue pcb write:
    volAverage(pcb) of T = 301.27448

volFieldValue component_0 write:
    volAverage(component_0) of T = 351.86118

volFieldValue component_1 write:
    volAverage(component_1) of T = 307.26667

volFieldValue component_2 write:
    volAverage(component_2) of T = 313.31878

volFieldValue component_3 write:
    volAverage(component_3) of T = 310.48306

volFieldValue component_4 write:
    volAverage(component_4) of T = 307.64882

Time = 21


Solving for fluid region fluid
DILUPBiCGStab:  Solving for Ux, Initial residual = 0.1345445, Final residual = 0.003065702, No Iterations 2
DILUPBiCGStab:  Solving for Uy, Initial residual = 0.10519009, Final residual = 0.0028125001, No Iterations 2

Solving energy coupled regions
Using lduPrimitiveAssembly: lduAssembly456789
DILUPBiCGStab:  Solving for h, Initial residual = 0.014329933, Final residual = 0.00035750189, No Iterations 1
limitTemperature=limitT, Type=Lower, LimitedCells=0, CellsPercent=0, Tmin=250, UnlimitedTmin=299.99658
limitTemperature=limitT, Type=Upper, LimitedCells=0, CellsPercent=0, Tmax=6000, UnlimitedTmax=304.45227
limitTemperature=limitT, Type=Lower, LimitedCells=0, CellsPercent=0, Tmin=250, UnlimitedTmin=300.00148
limitTemperature=limitT, Type=Upper, LimitedCells=0, CellsPercent=0, Tmax=6000, UnlimitedTmax=322.18813
limitTemperature=limitT, Type=Lower, LimitedCells=0, CellsPercent=0, Tmin=250, UnlimitedTmin=330.67146
limitTemperature=limitT, Type=Upper, LimitedCells=0, CellsPercent=0, Tmax=600, UnlimitedTmax=362.60541
limitTemperature=limitT, Type=Lower, LimitedCells=0, CellsPercent=0, Tmin=250, UnlimitedTmin=305.78486
limitTemperature=limitT, Type=Upper, LimitedCells=0, CellsPercent=0, Tmax=600, UnlimitedTmax=307.90752
limitTemperature=limitT, Type=Lower, LimitedCells=0, CellsPercent=0, Tmin=250, UnlimitedTmin=304.72591
limitTemperature=limitT, Type=Upper, LimitedCells=0, CellsPercent=0, Tmax=600, UnlimitedTmax=316.23615
limitTemperature=limitT, Type=Lower, LimitedCells=0, CellsPercent=0, Tmin=250, UnlimitedTmin=307.38252
limitTemperature=limitT, Type=Upper, LimitedCells=0, CellsPercent=0, Tmax=600, UnlimitedTmax=311.56351
limitTemperature=limitT, Type=Lower, LimitedCells=0, CellsPercent=0, Tmin=250, UnlimitedTmin=305.38249
limitTemperature=limitT, Type=Upper, LimitedCells=0, CellsPercent=0, Tmax=600, UnlimitedTmax=308.41549
DICPBiCGStab:  Solving for p_rgh, Initial residual = 0.15560939, Final residual = 0.015472108, No Iterations 38
time step continuity errors : sum local = 0.052869615, global = 0.021993775, cumulative = -0.11172593
Min/max rho:0.99179511 1.1773245
DILUPBiCGStab:  Solving for epsilon, Initial residual = 0.013976483, Final residual = 0.00063106894, No Iterations 1
DILUPBiCGStab:  Solving for k, Initial residual = 0.063189971, Final residual = 0.00090516754, No Iterations 2
bounding k, min: -0.0006864059 max: 0.61662049 average: 0.042767431
ExecutionTime = 2.15 s  ClockTime = 3 s

volFieldValue fluid write:
    volAverage(fluid) of T = 300.04001

volFieldValue pcb write:
    volAverage(pcb) of T = 301.3779

volFieldValue component_0 write:
    volAverage(component_0) of T = 353.54965

volFieldValue component_1 write:
    volAverage(component_1) of T = 307.58347

volFieldValue component_2 write:
    volAverage(component_2) of T = 313.79698

volFieldValue component_3 write:
    volAverage(component_3) of T = 310.92577

volFieldValue component_4 write:
    volAverage(component_4) of T = 307.986

Time = 22


Solving for fluid region fluid
DILUPBiCGStab:  Solving for Ux, Initial residual = 0.10914217, Final residual = 0.0024573521, No Iterations 2
DILUPBiCGStab:  Solving for Uy, Initial residual = 0.1129622, Final residual = 0.0036772333, No Iterations 2

Solving energy coupled regions
Using lduPrimitiveAssembly: lduAssembly456789
DILUPBiCGStab:  Solving for h, Initial residual = 0.014679942, Final residual = 0.00041042188, No Iterations 1
limitTemperature=limitT, Type=Lower, LimitedCells=0, CellsPercent=0, Tmin=250, UnlimitedTmin=299.99649
limitTemperature=limitT, Type=Upper, LimitedCells=0, CellsPercent=0, Tmax=6000, UnlimitedTmax=305.10612
limitTemperature=limitT, Type=Lower, LimitedCells=0, CellsPercent=0, Tmin=250, UnlimitedTmin=300.0018
limitTemperature=limitT, Type=Upper, LimitedCells=0, CellsPercent=0, Tmax=6000, UnlimitedTmax=323.47157
limitTemperature=limitT, Type=Lower, LimitedCells=0, CellsPercent=0, Tmin=250, UnlimitedTmin=332.42803
limitTemperature=limitT, Type=Upper, LimitedCells=0, CellsPercent=0, Tmax=600, UnlimitedTmax=364.68973
limitTemperature=limitT, Type=Lower, LimitedCells=0, CellsPercent=0, Tmin=250, UnlimitedTmin=306.06945
limitTemperature=limitT, Type=Upper, LimitedCells=0, CellsPercent=0, Tmax=600, UnlimitedTmax=308.26131
limitTemperature=limitT, Type=Lower, LimitedCells=0, CellsPercent=0, Tmin=250, UnlimitedTmin=304.92084
limitTemperature=limitT, Type=Upper, LimitedCells=0, CellsPercent=0, Tmax=600, UnlimitedTmax=316.92774
limitTemperature=limitT, Type=Lower, LimitedCells=0, CellsPercent=0, Tmin=250, UnlimitedTmin=307.65879
limitTemperature=limitT, Type=Upper, LimitedCells=0, CellsPercent=0, Tmax=600, UnlimitedTmax=312.07197
limitTemperature=limitT, Type=Lower, LimitedCells=0, CellsPercent=0, Tmin=250, UnlimitedTmin=305.59828
limitTemperature=limitT, Type=Upper, LimitedCells=0, CellsPercent=0, Tmax=600, UnlimitedTmax=308.80384
DICPBiCGStab:  Solving for p_rgh, Initial residual = 0.17424187, Final residual = 0.017203621, No Iterations 61
time step continuity errors : sum local = 0.050047743, global = -0.00050366602, cumulative = -0.11222959
Min/max rho:0.98561997 1.1773101
DILUPBiCGStab:  Solving for epsilon, Initial residual = 0.011848058, Final residual = 0.00047438108, No Iterations 1
DILUPBiCGStab:  Solving for k, Initial residual = 0.058369232, Final residual = 0.0028392789, No Iterations 1
bounding k, min: -0.0051560639 max: 0.56558921 average: 0.043202348
ExecutionTime = 2.25 s  ClockTime = 3 s

volFieldValue fluid write:
    volAverage(fluid) of T = 300.04274

volFieldValue pcb write:
    volAverage(pcb) of T = 301.4839

volFieldValue component_0 write:
    volAverage(component_0) of T = 355.11119

volFieldValue component_1 write:
    volAverage(component_1) of T = 307.89211

volFieldValue component_2 write:
    volAverage(component_2) of T = 314.2641

volFieldValue component_3 write:
    volAverage(component_3) of T = 311.35968

volFieldValue component_4 write:
    volAverage(component_4) of T = 308.31405

Time = 23


Solving for fluid region fluid
DILUPBiCGStab:  Solving for Ux, Initial residual = 0.068436066, Final residual = 0.0014432855, No Iterations 2
DILUPBiCGStab:  Solving for Uy, Initial residual = 0.13521165, Final residual = 0.0043503277, No Iterations 2

Solving energy coupled regions
Using lduPrimitiveAssembly: lduAssembly456789
DILUPBiCGStab:  Solving for h, Initial residual = 0.014679049, Final residual = 0.00038393952, No Iterations 1
limitTemperature=limitT, Type=Lower, LimitedCells=0, CellsPercent=0, Tmin=250, UnlimitedTmin=299.99642
limitTemperature=limitT, Type=Upper, LimitedCells=0, CellsPercent=0, Tmax=6000, UnlimitedTmax=304.61704
limitTemperature=limitT, Type=Lower, LimitedCells=0, CellsPercent=0, Tmin=250, UnlimitedTmin=300.00028
limitTemperature=limitT, Type=Upper, LimitedCells=0, CellsPercent=0, Tmax=6000, UnlimitedTmax=324.76243
limitTemperature=limitT, Type=Lower, LimitedCells=0, CellsPercent=0, Tmin=250, UnlimitedTmin=333.9999
limitTemperature=limitT, Type=Upper, LimitedCells=0, CellsPercent=0, Tmax=600, UnlimitedTmax=366.5543
limitTemperature=limitT, Type=Lower, LimitedCells=0, CellsPercent=0, Tmin=250, UnlimitedTmin=306.27633
limitTemperature=limitT, Type=Upper, LimitedCells=0, CellsPercent=0, Tmax=600, UnlimitedTmax=308.61178
limitTemperature=limitT, Type=Lower, LimitedCells=0, CellsPercent=0, Tmin=250, UnlimitedTmin=304.90791
limitTemperature=limitT, Type=Upper, LimitedCells=0, CellsPercent=0, Tmax=600, UnlimitedTmax=317.60877
limitTemperature=limitT, Type=Lower, LimitedCells=0, CellsPercent=0, Tmin=250, UnlimitedTmin=307.84819
limitTemperature=limitT, Type=Upper, LimitedCells=0, CellsPercent=0, Tmax=600, UnlimitedTmax=312.57531
limitTemperature=limitT, Type=Lower, LimitedCells=0, CellsPercent=0, Tmin=250, UnlimitedTmin=305.83347
limitTemperature=limitT, Type=Upper, LimitedCells=0, CellsPercent=0, Tmax=600, UnlimitedTmax=309.18874
DICPBiCGStab:  Solving for p_rgh, Initial residual = 0.47814046, Final residual = 0.046918, No Iterations 39
time step continuity errors : sum local = 0.042777169, global = 0.042419392, cumulative = -0.069810202
Min/max rho:0.98044163 1.1770383
DILUPBiCGStab:  Solving for epsilon, Initial residual = 0.01134304, Final residual = 0.00049848496, No Iterations 1
bounding epsilon, min: -0.014775914 max: 10 average: 0.078486812
DILUPBiCGStab:  Solving for k, Initial residual = 0.054882029, Final residual = 0.00099885982, No Iterations 2
bounding k, min: -0.0026805192 max: 0.52946042 average: 0.043789865
ExecutionTime = 2.29 s  ClockTime = 3 s

volFieldValue fluid write:
    volAverage(fluid) of T = 300.04365

volFieldValue pcb write:
    volAverage(pcb) of T = 301.58858

volFieldValue component_0 write:
    volAverage(component_0) of T = 356.46851

volFieldValue component_1 write:
    volAverage(component_1) of T = 308.19384

volFieldValue component_2 write:
    volAverage(component_2) of T = 314.71161

volFieldValue component_3 write:
    volAverage(component_3) of T = 311.78522

volFieldValue component_4 write:
    volAverage(component_4) of T = 308.63495

Time = 24


Solving for fluid region fluid
DILUPBiCGStab:  Solving for Ux, Initial residual = 0.055581724, Final residual = 0.0012614527, No Iterations 2
DILUPBiCGStab:  Solving for Uy, Initial residual = 0.1137617, Final residual = 0.0020438222, No Iterations 2

Solving energy coupled regions
Using lduPrimitiveAssembly: lduAssembly456789
DILUPBiCGStab:  Solving for h, Initial residual = 0.014616854, Final residual = 0.00037371452, No Iterations 1
limitTemperature=limitT, Type=Lower, LimitedCells=0, CellsPercent=0, Tmin=250, UnlimitedTmin=299.99641
limitTemperature=limitT, Type=Upper, LimitedCells=0, CellsPercent=0, Tmax=6000, UnlimitedTmax=304.10516
limitTemperature=limitT, Type=Lower, LimitedCells=0, CellsPercent=0, Tmin=250, UnlimitedTmin=299.99976
limitTemperature=limitT, Type=Upper, LimitedCells=0, CellsPercent=0, Tmax=6000, UnlimitedTmax=326.02132
limitTemperature=limitT, Type=Lower, LimitedCells=0, CellsPercent=0, Tmin=250, UnlimitedTmin=334.68879
limitTemperature=limitT, Type=Upper, LimitedCells=0, CellsPercent=0, Tmax=600, UnlimitedTmax=368.12445
limitTemperature=limitT, Type=Lower, LimitedCells=0, CellsPercent=0, Tmin=250, UnlimitedTmin=306.41208
limitTemperature=limitT, Type=Upper, LimitedCells=0, CellsPercent=0, Tmax=600, UnlimitedTmax=308.95736
limitTemperature=limitT, Type=Lower, LimitedCells=0, CellsPercent=0, Tmin=250, UnlimitedTmin=304.74255
limitTemperature=limitT, Type=Upper, LimitedCells=0, CellsPercent=0, Tmax=600, UnlimitedTmax=318.27467
limitTemperature=limitT, Type=Lower, LimitedCells=0, CellsPercent=0, Tmin=250, UnlimitedTmin=308.01105
limitTemperature=limitT, Type=Upper, LimitedCells=0, CellsPercent=0, Tmax=600, UnlimitedTmax=313.07173
limitTemperature=limitT, Type=Lower, LimitedCells=0, CellsPercent=0, Tmin=250, UnlimitedTmin=306.06517
limitTemperature=limitT, Type=Upper, LimitedCells=0, CellsPercent=0, Tmax=600, UnlimitedTmax=309.57088
DICPBiCGStab:  Solving for p_rgh, Initial residual = 0.54704768, Final residual = 0.054695952, No Iterations 62
time step continuity errors : sum local = 0.044790212, global = 0.044790212, cumulative = -0.02501999
Min/max rho:0.97623727 1.176932
DILUPBiCGStab:  Solving for epsilon, Initial residual = 0.010753153, Final residual = 0.00047059786, No Iterations 1
bounding epsilon, min: -0.0040412645 max: 10 average: 0.079389307
DILUPBiCGStab:  Solving for k, Initial residual = 0.054344371, Final residual = 0.00072262722, No Iterations 2
bounding k, min: -0.016150267 max: 0.56424951 average: 0.044855148
ExecutionTime = 2.39 s  ClockTime = 3 s

volFieldValue fluid write:
    volAverage(fluid) of T = 300.04707

volFieldValue pcb write:
    volAverage(pcb) of T = 301.69592

volFieldValue component_0 write:
    volAverage(component_0) of T = 357.91311

volFieldValue component_1 write:
    volAverage(component_1) of T = 308.49331

volFieldValue component_2 write:
    volAverage(component_2) of T = 315.1474

volFieldValue component_3 write:
    volAverage(component_3) of T = 312.20914

volFieldValue component_4 write:
    volAverage(component_4) of T = 308.95252

Time = 25


Solving for fluid region fluid
DILUPBiCGStab:  Solving for Ux, Initial residual = 0.0402931, Final residual = 0.0010178999, No Iterations 2
DILUPBiCGStab:  Solving for Uy, Initial residual = 0.090375904, Final residual = 0.0022364949, No Iterations 2

Solving energy coupled regions
Using lduPrimitiveAssembly: lduAssembly456789
DILUPBiCGStab:  Solving for h, Initial residual = 0.015388427, Final residual = 0.00010004843, No Iterations 2
limitTemperature=limitT, Type=Lower, LimitedCells=0, CellsPercent=0, Tmin=250, UnlimitedTmin=299.99643
limitTemperature=limitT, Type=Upper, LimitedCells=0, CellsPercent=0, Tmax=6000, UnlimitedTmax=308.57799
[...]
bounding epsilon, min: -1273.717 max: 14021831 average: 10241.944
DILUPBiCGStab:  Solving for k, Initial residual = 2.6066558e-10, Final residual = 2.6066558e-10, No Iterations 0
ExecutionTime = 20.99 s  ClockTime = 21 s

volFieldValue fluid write:
    volAverage(fluid) of T = 960.99083

volFieldValue pcb write:
    volAverage(pcb) of T = 564.13738

volFieldValue component_0 write:
    volAverage(component_0) of T = 250

volFieldValue component_1 write:
    volAverage(component_1) of T = 359.14088

volFieldValue component_2 write:
    volAverage(component_2) of T = 403.382

volFieldValue component_3 write:
    volAverage(component_3) of T = 340.14373

volFieldValue component_4 write:
    volAverage(component_4) of T = 277.88572

Time = 260


Solving for fluid region fluid
DILUPBiCGStab:  Solving for Ux, Initial residual = 0.38261828, Final residual = 0.010492898, No Iterations 2
DILUPBiCGStab:  Solving for Uy, Initial residual = 0.4538105, Final residual = 0.013504832, No Iterations 2

Solving energy coupled regions
Using lduPrimitiveAssembly: lduAssembly456789
DILUPBiCGStab:  Solving for h, Initial residual = 0.97585338, Final residual = 0.018927872, No Iterations 2
limitTemperature=limitT, Type=Lower, LimitedCells=800, CellsPercent=9.22, Tmin=250, UnlimitedTmin=250
limitTemperature=limitT, Type=Upper, LimitedCells=935, CellsPercent=10.78, Tmax=6000, UnlimitedTmax=6000
limitTemperature=limitT, Type=Lower, LimitedCells=155, CellsPercent=22.59, Tmin=250, UnlimitedTmin=250
limitTemperature=limitT, Type=Upper, LimitedCells=13, CellsPercent=1.9, Tmax=6000, UnlimitedTmax=6000
limitTemperature=limitT, Type=Lower, LimitedCells=32, CellsPercent=100, Tmin=250, UnlimitedTmin=250
limitTemperature=limitT, Type=Upper, LimitedCells=0, CellsPercent=0, Tmax=600, UnlimitedTmax=250
limitTemperature=limitT, Type=Lower, LimitedCells=69, CellsPercent=41.07, Tmin=250, UnlimitedTmin=250
limitTemperature=limitT, Type=Upper, LimitedCells=76, CellsPercent=45.24, Tmax=600, UnlimitedTmax=600
limitTemperature=limitT, Type=Lower, LimitedCells=23, CellsPercent=6.53, Tmin=250, UnlimitedTmin=250
limitTemperature=limitT, Type=Upper, LimitedCells=71, CellsPercent=20.17, Tmax=600, UnlimitedTmax=600
limitTemperature=limitT, Type=Lower, LimitedCells=1, CellsPercent=0.28, Tmin=250, UnlimitedTmin=250
limitTemperature=limitT, Type=Upper, LimitedCells=0, CellsPercent=0, Tmax=600, UnlimitedTmax=355.03364
limitTemperature=limitT, Type=Lower, LimitedCells=51, CellsPercent=24.52, Tmin=250, UnlimitedTmin=250
limitTemperature=limitT, Type=Upper, LimitedCells=0, CellsPercent=0, Tmax=600, UnlimitedTmax=343.32904
DICPBiCGStab:  Solving for p_rgh, Initial residual = 0.6767281, Final residual = 0.062944, No Iterations 2
time step continuity errors : sum local = 89170.363, global = 4.0208683, cumulative = 36.446035
Min/max rho:0.010644407 12038.267
DILUPBiCGStab:  Solving for epsilon, Initial residual = 0.77623758, Final residual = 0.014821124, No Iterations 2
bounding epsilon, min: -2042186.7 max: 12218116 average: 25112.115
DILUPBiCGStab:  Solving for k, Initial residual = 2.7677268e-12, Final residual = 2.7677268e-12, No Iterations 0
ExecutionTime = 21.05 s  ClockTime = 22 s

volFieldValue fluid write:
    volAverage(fluid) of T = 1122.8893

volFieldValue pcb write:
    volAverage(pcb) of T = 495.50876

volFieldValue component_0 write:
    volAverage(component_0) of T = 250

volFieldValue component_1 write:
    volAverage(component_1) of T = 429.43612

volFieldValue component_2 write:
    volAverage(component_2) of T = 411.43227

volFieldValue component_3 write:
    volAverage(component_3) of T = 339.50712

volFieldValue component_4 write:
    volAverage(component_4) of T = 278.09368

Time = 261


Solving for fluid region fluid
DILUPBiCGStab:  Solving for Ux, Initial residual = 0.14171816, Final residual = 0.0028124406, No Iterations 2
DILUPBiCGStab:  Solving for Uy, Initial residual = 0.30833695, Final residual = 0.010866863, No Iterations 2

Solving energy coupled regions
Using lduPrimitiveAssembly: lduAssembly456789
DILUPBiCGStab:  Solving for h, Initial residual = 0.99381057, Final residual = 0.029284753, No Iterations 8
limitTemperature=limitT, Type=Lower, LimitedCells=2110, CellsPercent=24.33, Tmin=250, UnlimitedTmin=250
limitTemperature=limitT, Type=Upper, LimitedCells=826, CellsPercent=9.52, Tmax=6000, UnlimitedTmax=6000
limitTemperature=limitT, Type=Lower, LimitedCells=146, CellsPercent=21.28, Tmin=250, UnlimitedTmin=250
limitTemperature=limitT, Type=Upper, LimitedCells=20, CellsPercent=2.92, Tmax=6000, UnlimitedTmax=6000
limitTemperature=limitT, Type=Lower, LimitedCells=32, CellsPercent=100, Tmin=250, UnlimitedTmin=250
limitTemperature=limitT, Type=Upper, LimitedCells=0, CellsPercent=0, Tmax=600, UnlimitedTmax=250
limitTemperature=limitT, Type=Lower, LimitedCells=61, CellsPercent=36.31, Tmin=250, UnlimitedTmin=250
limitTemperature=limitT, Type=Upper, LimitedCells=96, CellsPercent=57.14, Tmax=600, UnlimitedTmax=600
limitTemperature=limitT, Type=Lower, LimitedCells=49, CellsPercent=13.92, Tmin=250, UnlimitedTmin=250
limitTemperature=limitT, Type=Upper, LimitedCells=76, CellsPercent=21.59, Tmax=600, UnlimitedTmax=600
limitTemperature=limitT, Type=Lower, LimitedCells=17, CellsPercent=4.72, Tmin=250, UnlimitedTmin=250
limitTemperature=limitT, Type=Upper, LimitedCells=0, CellsPercent=0, Tmax=600, UnlimitedTmax=355.07375
limitTemperature=limitT, Type=Lower, LimitedCells=11, CellsPercent=5.29, Tmin=250, UnlimitedTmin=250
limitTemperature=limitT, Type=Upper, LimitedCells=0, CellsPercent=0, Tmax=600, UnlimitedTmax=341.50538
DICPBiCGStab:  Solving for p_rgh, Initial residual = 0.95626522, Final residual = 0.074725089, No Iterations 4
time step continuity errors : sum local = 455657.48, global = 5.1253341, cumulative = 41.571369
Min/max rho:0.0053222035 20246.117
DILUPBiCGStab:  Solving for epsilon, Initial residual = 0.21118174, Final residual = 0.0021447533, No Iterations 1
bounding epsilon, min: -428624.65 max: 17665455 average: 34348.745
DILUPBiCGStab:  Solving for k, Initial residual = 1.2869359e-10, Final residual = 1.2869359e-10, No Iterations 0
ExecutionTime = 21.08 s  ClockTime = 22 s

volFieldValue fluid write:
    volAverage(fluid) of T = 1027.9377

volFieldValue pcb write:
    volAverage(pcb) of T = 532.17014

volFieldValue component_0 write:
    volAverage(component_0) of T = 250

volFieldValue component_1 write:
    volAverage(component_1) of T = 465.35824

volFieldValue component_2 write:
    volAverage(component_2) of T = 411.07286

volFieldValue component_3 write:
    volAverage(component_3) of T = 335.98089

volFieldValue component_4 write:
    volAverage(component_4) of T = 279.26662

Time = 262


Solving for fluid region fluid
DILUPBiCGStab:  Solving for Ux, Initial residual = 0.21179012, Final residual = 0.0042732369, No Iterations 4
DILUPBiCGStab:  Solving for Uy, Initial residual = 0.32444792, Final residual = 0.0072246952, No Iterations 6

Solving energy coupled regions
Using lduPrimitiveAssembly: lduAssembly456789
DILUPBiCGStab:  Solving for h, Initial residual = 1, Final residual = 0.033629575, No Iterations 9
limitTemperature=limitT, Type=Lower, LimitedCells=2796, CellsPercent=32.23, Tmin=250, UnlimitedTmin=250
limitTemperature=limitT, Type=Upper, LimitedCells=1359, CellsPercent=15.67, Tmax=6000, UnlimitedTmax=6000
limitTemperature=limitT, Type=Lower, LimitedCells=535, CellsPercent=77.99, Tmin=250, UnlimitedTmin=250
limitTemperature=limitT, Type=Upper, LimitedCells=28, CellsPercent=4.08, Tmax=6000, UnlimitedTmax=6000
limitTemperature=limitT, Type=Lower, LimitedCells=32, CellsPercent=100, Tmin=250, UnlimitedTmin=250
limitTemperature=limitT, Type=Upper, LimitedCells=0, CellsPercent=0, Tmax=600, UnlimitedTmax=250
limitTemperature=limitT, Type=Lower, LimitedCells=168, CellsPercent=100, Tmin=250, UnlimitedTmin=250
limitTemperature=limitT, Type=Upper, LimitedCells=0, CellsPercent=0, Tmax=600, UnlimitedTmax=600
limitTemperature=limitT, Type=Lower, LimitedCells=318, CellsPercent=90.34, Tmin=250, UnlimitedTmin=250
limitTemperature=limitT, Type=Upper, LimitedCells=0, CellsPercent=0, Tmax=600, UnlimitedTmax=600
limitTemperature=limitT, Type=Lower, LimitedCells=300, CellsPercent=83.33, Tmin=250, UnlimitedTmin=250
limitTemperature=limitT, Type=Upper, LimitedCells=55, CellsPercent=15.28, Tmax=600, UnlimitedTmax=355.09432
limitTemperature=limitT, Type=Lower, LimitedCells=96, CellsPercent=46.15, Tmin=250, UnlimitedTmin=250
limitTemperature=limitT, Type=Upper, LimitedCells=0, CellsPercent=0, Tmax=600, UnlimitedTmax=339.34103
DICPBiCGStab:  Solving for p_rgh, Initial residual = 0.99367591, Final residual = 0.096222826, No Iterations 185
time step continuity errors : sum local = 1.6099004e+08, global = -1.3466624e+08, cumulative = -1.346662e+08
Min/max rho:0.0030895805 859722.95
DILUPBiCGStab:  Solving for epsilon, Initial residual = 0.96077078, Final residual = 0.017537605, No Iterations 4
bounding epsilon, min: -1.8305195e+12 max: 4.9847162e+10 average: -7.6358469e+08
DILUPBiCGStab:  Solving for k, Initial residual = 0.0013196334, Final residual = 2.2586105e-05, No Iterations 1
bounding k, min: -15.264794 max: 2.5301544e+09 average: 1522291.8
ExecutionTime = 21.34 s  ClockTime = 22 s

volFieldValue fluid write:
    volAverage(fluid) of T = 1184.8887

volFieldValue pcb write:
    volAverage(pcb) of T = 454.17988

volFieldValue component_0 write:
    volAverage(component_0) of T = 250

volFieldValue component_1 write:
    volAverage(component_1) of T = 250

volFieldValue component_2 write:
    volAverage(component_2) of T = 257.29712

volFieldValue component_3 write:
    volAverage(component_3) of T = 303.84201

volFieldValue component_4 write:
    volAverage(component_4) of T = 263.08739

Time = 263


Solving for fluid region fluid
DILUPBiCGStab:  Solving for Ux, Initial residual = 0.66343025, Final residual = 0.0010790499, No Iterations 4
DILUPBiCGStab:  Solving for Uy, Initial residual = 0.69157976, Final residual = 0.031586832, No Iterations 3

Solving energy coupled regions
Using lduPrimitiveAssembly: lduAssembly456789
DILUPBiCGStab:  Solving for h, Initial residual = 1, Final residual = 0.033915886, No Iterations 14
limitTemperature=limitT, Type=Lower, LimitedCells=2802, CellsPercent=32.3, Tmin=250, UnlimitedTmin=250
limitTemperature=limitT, Type=Upper, LimitedCells=5872, CellsPercent=67.7, Tmax=6000, UnlimitedTmax=6000
limitTemperature=limitT, Type=Lower, LimitedCells=297, CellsPercent=43.29, Tmin=250, UnlimitedTmin=250
limitTemperature=limitT, Type=Upper, LimitedCells=388, CellsPercent=56.56, Tmax=6000, UnlimitedTmax=6000
limitTemperature=limitT, Type=Lower, LimitedCells=3, CellsPercent=9.38, Tmin=250, UnlimitedTmin=250
limitTemperature=limitT, Type=Upper, LimitedCells=29, CellsPercent=90.63, Tmax=600, UnlimitedTmax=250
limitTemperature=limitT, Type=Lower, LimitedCells=29, CellsPercent=17.26, Tmin=250, UnlimitedTmin=250
limitTemperature=limitT, Type=Upper, LimitedCells=139, CellsPercent=82.74, Tmax=600, UnlimitedTmax=250
limitTemperature=limitT, Type=Lower, LimitedCells=206, CellsPercent=58.52, Tmin=250, UnlimitedTmin=250
limitTemperature=limitT, Type=Upper, LimitedCells=146, CellsPercent=41.48, Tmax=600, UnlimitedTmax=349.42589
limitTemperature=limitT, Type=Lower, LimitedCells=201, CellsPercent=55.83, Tmin=250, UnlimitedTmin=250
limitTemperature=limitT, Type=Upper, LimitedCells=159, CellsPercent=44.17, Tmax=600, UnlimitedTmax=600
limitTemperature=limitT, Type=Lower, LimitedCells=116, CellsPercent=55.77, Tmin=250, UnlimitedTmin=250
limitTemperature=limitT, Type=Upper, LimitedCells=92, CellsPercent=44.23, Tmax=600, UnlimitedTmax=321.6205
DICPBiCGStab:  Solving for p_rgh, Initial residual = 0.97178159, Final residual = 6.873553, No Iterations 1000
time step continuity errors : sum local = 2.4141844e+12, global = -36074025, cumulative = -1.7074022e+08
Min/max rho:0.0015447903 2.4979925e+09
DILUPBiCGStab:  Solving for epsilon, Initial residual = 0.99919449, Final residual = 0.0061809819, No Iterations 4
bounding epsilon, min: -6.2414878e+17 max: 1.7156356e+18 average: 1.22707e+15
DILUPBiCGStab:  Solving for k, Initial residual = 0.99999548, Final residual = 0.044048673, No Iterations 1
bounding k, min: -16280421 max: 1.2454397e+17 average: 6.1884048e+13
ExecutionTime = 22.24 s  ClockTime = 23 s

volFieldValue fluid write:
    volAverage(fluid) of T = 4130.5176

volFieldValue pcb write:
    volAverage(pcb) of T = 3522.9375

volFieldValue component_0 write:
    volAverage(component_0) of T = 566.74817

volFieldValue component_1 write:
    volAverage(component_1) of T = 539.49684

volFieldValue component_2 write:
    volAverage(component_2) of T = 395.0171

volFieldValue component_3 write:
    volAverage(component_3) of T = 404.4546

volFieldValue component_4 write:
    volAverage(component_4) of T = 404.93767

Time = 264


Solving for fluid region fluid
DILUPBiCGStab:  Solving for Ux, Initial residual = 0.23162288, Final residual = 0.0036909731, No Iterations 15
DILUPBiCGStab:  Solving for Uy, Initial residual = 0.48470076, Final residual = 0.023762982, No Iterations 15

Solving energy coupled regions
Using lduPrimitiveAssembly: lduAssembly456789
DILUPBiCGStab:  Solving for h, Initial residual = 1, Final residual = 0.02881787, No Iterations 18
limitTemperature=limitT, Type=Lower, LimitedCells=3818, CellsPercent=44.02, Tmin=250, UnlimitedTmin=250
limitTemperature=limitT, Type=Upper, LimitedCells=4856, CellsPercent=55.98, Tmax=6000, UnlimitedTmax=6000
limitTemperature=limitT, Type=Lower, LimitedCells=414, CellsPercent=60.35, Tmin=250, UnlimitedTmin=250
limitTemperature=limitT, Type=Upper, LimitedCells=272, CellsPercent=39.65, Tmax=6000, UnlimitedTmax=6000
limitTemperature=limitT, Type=Lower, LimitedCells=0, CellsPercent=0, Tmin=250, UnlimitedTmin=250
limitTemperature=limitT, Type=Upper, LimitedCells=32, CellsPercent=100, Tmax=600, UnlimitedTmax=600
limitTemperature=limitT, Type=Lower, LimitedCells=94, CellsPercent=55.95, Tmin=250, UnlimitedTmin=250
limitTemperature=limitT, Type=Upper, LimitedCells=74, CellsPercent=44.05, Tmax=600, UnlimitedTmax=600
limitTemperature=limitT, Type=Lower, LimitedCells=352, CellsPercent=100, Tmin=250, UnlimitedTmin=250
limitTemperature=limitT, Type=Upper, LimitedCells=0, CellsPercent=0, Tmax=600, UnlimitedTmax=600
limitTemperature=limitT, Type=Lower, LimitedCells=313, CellsPercent=86.94, Tmin=250, UnlimitedTmin=250
limitTemperature=limitT, Type=Upper, LimitedCells=47, CellsPercent=13.06, Tmax=600, UnlimitedTmax=600
limitTemperature=limitT, Type=Lower, LimitedCells=45, CellsPercent=21.63, Tmin=250, UnlimitedTmin=250
limitTemperature=limitT, Type=Upper, LimitedCells=163, CellsPercent=78.37, Tmax=600, UnlimitedTmax=600
DICPBiCGStab:  Solving for p_rgh, Initial residual = 0.91536859, Final residual = 6950339.6, No Iterations 1000
time step continuity errors : sum local = 9.4829413e+27, global = -9.6605797e+24, cumulative = -9.6605797e+24
Min/max rho:0.011876776 5.0000015e+14
DILUPBiCGStab:  Solving for epsilon, Initial residual = 1, Final residual = 0.01663837, No Iterations 8
bounding epsilon, min: -3.6732243e+12 max: 4.3784039e+33 average: 4.1306945e+30
DILUPBiCGStab:  Solving for k, Initial residual = 1, Final residual = 0.0016157156, No Iterations 1
bounding k, min: -84679.919 max: 2.50136e+43 average: 8.7387312e+39
ExecutionTime = 23.15 s  ClockTime = 24 s

volFieldValue fluid write:
    volAverage(fluid) of T = 3422.7936

volFieldValue pcb write:
    volAverage(pcb) of T = 2488.0944

volFieldValue component_0 write:
    volAverage(component_0) of T = 600

volFieldValue component_1 write:
    volAverage(component_1) of T = 404.40268

volFieldValue component_2 write:
    volAverage(component_2) of T = 250

volFieldValue component_3 write:
    volAverage(component_3) of T = 295.69232

volFieldValue component_4 write:
    volAverage(component_4) of T = 524.26917

Time = 265


Solving for fluid region fluid
DILUPBiCGStab:  Solving for Ux, Initial residual = 0.0015166431, Final residual = 7.2013649e-05, No Iterations 2
DILUPBiCGStab:  Solving for Uy, Initial residual = 0.00059527362, Final residual = 2.9052176e-05, No Iterations 2

Solving energy coupled regions
Using lduPrimitiveAssembly: lduAssembly456789
DILUPBiCGStab:  Solving for h, Initial residual = 1, Final residual = 0.017659624, No Iterations 22
limitTemperature=limitT, Type=Lower, LimitedCells=5952, CellsPercent=68.62, Tmin=250, UnlimitedTmin=250
limitTemperature=limitT, Type=Upper, LimitedCells=2722, CellsPercent=31.38, Tmax=6000, UnlimitedTmax=6000
limitTemperature=limitT, Type=Lower, LimitedCells=616, CellsPercent=89.8, Tmin=250, UnlimitedTmin=250
limitTemperature=limitT, Type=Upper, LimitedCells=70, CellsPercent=10.2, Tmax=6000, UnlimitedTmax=6000
limitTemperature=limitT, Type=Lower, LimitedCells=32, CellsPercent=100, Tmin=250, UnlimitedTmin=600
limitTemperature=limitT, Type=Upper, LimitedCells=0, CellsPercent=0, Tmax=600, UnlimitedTmax=600
limitTemperature=limitT, Type=Lower, LimitedCells=23, CellsPercent=13.69, Tmin=250, UnlimitedTmin=250
limitTemperature=limitT, Type=Upper, LimitedCells=145, CellsPercent=86.31, Tmax=600, UnlimitedTmax=600
limitTemperature=limitT, Type=Lower, LimitedCells=222, CellsPercent=63.07, Tmin=250, UnlimitedTmin=250
limitTemperature=limitT, Type=Upper, LimitedCells=130, CellsPercent=36.93, Tmax=600, UnlimitedTmax=250
limitTemperature=limitT, Type=Lower, LimitedCells=360, CellsPercent=100, Tmin=250, UnlimitedTmin=250
limitTemperature=limitT, Type=Upper, LimitedCells=0, CellsPercent=0, Tmax=600, UnlimitedTmax=600
limitTemperature=limitT, Type=Lower, LimitedCells=164, CellsPercent=78.85, Tmin=250, UnlimitedTmin=250
limitTemperature=limitT, Type=Upper, LimitedCells=44, CellsPercent=21.15, Tmax=600, UnlimitedTmax=600
DICPBiCGStab:  Solving for p_rgh, Initial residual = 0.98167521, Final residual = 3.4262295e+50, No Iterations 1000
time step continuity errors : sum local = 5.6762439e+94, global = -1.2962819e+79, cumulative = -1.2962819e+79
Min/max rho:0.0059383882 7.5e+14
DILUPBiCGStab:  Solving for epsilon, Initial residual = 7.0528941e-21, Final residual = 7.0528941e-21, No Iterations 0
[stack trace]
=============
#1  Foam::sigFpe::sigHandler(int) in /usr/lib/openfoam/openfoam2506/platforms/linux64GccDPInt32Opt/lib/libOpenFOAM.so
#2  ? in /lib/x86_64-linux-gnu/libc.so.6
#3  Foam::scalarProduct<double, double>::type Foam::sumProd<double>(Foam::UList<double> const&, Foam::UList<double> const&) in /usr/lib/openfoam/openfoam2506/platforms/linux64GccDPInt32Opt/lib/libOpenFOAM.so
#4  ? in /usr/lib/openfoam/openfoam2506/platforms/linux64GccDPInt32Opt/lib/libOpenFOAM.so
#5  Foam::PBiCGStab::scalarSolve(Foam::Field<double>&, Foam::Field<double> const&, unsigned char) const in /usr/lib/openfoam/openfoam2506/platforms/linux64GccDPInt32Opt/lib/libOpenFOAM.so
#6  Foam::PBiCGStab::solve(Foam::Field<double>&, Foam::Field<double> const&, unsigned char) const in /usr/lib/openfoam/openfoam2506/platforms/linux64GccDPInt32Opt/lib/libOpenFOAM.so
#7  Foam::fvMatrix<double>::solveSegregated(Foam::dictionary const&) in /usr/lib/openfoam/openfoam2506/platforms/linux64GccDPInt32Opt/lib/libfiniteVolume.so
#8  ? in /usr/lib/openfoam/openfoam2506/platforms/linux64GccDPInt32Opt/lib/libfiniteVolume.so
#9  Foam::fvMesh::solve(Foam::fvMatrix<double>&, Foam::dictionary const&) const in /usr/lib/openfoam/openfoam2506/platforms/linux64GccDPInt32Opt/lib/libfiniteVolume.so
#10  ? in /usr/lib/openfoam/openfoam2506/platforms/linux64GccDPInt32Opt/lib/libcompressibleTurbulenceModels.so
#11  ? in /usr/lib/openfoam/openfoam2506/platforms/linux64GccDPInt32Opt/lib/libcompressibleTurbulenceModels.so
#12  ? in /usr/lib/openfoam/openfoam2506/platforms/linux64GccDPInt32Opt/bin/chtMultiRegionSimpleFoam
#13  ? in /lib/x86_64-linux-gnu/libc.so.6
#14  __libc_start_main in /lib/x86_64-linux-gnu/libc.so.6
#15  ? in /usr/lib/openfoam/openfoam2506/platforms/linux64GccDPInt32Opt/bin/chtMultiRegionSimpleFoam
=============
Floating point exception (core dumped)
