/*---------------------------------------------------------------------------*\
| =========                 |                                                 |
| \\      /  F ield         | OpenFOAM: The Open Source CFD Toolbox           |
|  \\    /   O peration     | Version:  2506                                  |
|   \\  /    A nd           | Website:  www.openfoam.com                      |
|    \\/     M anipulation  |                                                 |
\*---------------------------------------------------------------------------*/
Build  : _615aae61-20250627 OPENFOAM=2506 version=2506
Arch   : "LSB;label=32;scalar=64"
Exec   : chtMultiRegionSimpleFoam
Date   : Sep 25 2025
Time   : 00:47:37
Host   : instance-20250906-0051
PID    : 245066
I/O    : uncollated
Case   : /home/ubuntu/ThermalUNet/data_generation/simulation_results/of/case_48
nProcs : 1
trapFpe: Floating point exception trapping enabled (FOAM_SIGFPE).
fileModificationChecking : Monitoring run-time modified files using timeStampMaster (fileModificationSkew 5, maxFileModificationPolls 20)
allowSystemOperations : Allowing user-supplied system call operations

// * * * * * * * * * * * * * * * * * * * * * * * * * * * * * * * * * * * * * //
Create time

Create fluid mesh for region fluid for time = 0

Create solid mesh for region pcb for time = 0

Create solid mesh for region component_0 for time = 0

Create solid mesh for region component_1 for time = 0

Create solid mesh for region component_2 for time = 0

Create solid mesh for region component_3 for time = 0

Create solid mesh for region component_4 for time = 0

*** Reading fluid mesh thermophysical properties for region fluid

    Adding to thermoFluid

Selecting thermodynamics package 
{
    type            heRhoThermo;
    mixture         pureMixture;
    transport       const;
    thermo          hConst;
    equationOfState perfectGas;
    specie          specie;
    energy          sensibleEnthalpy;
}

    Adding to rhoFluid

    Adding to UFluid

    Adding to phiFluid

    Adding to hRefFluid

    Adding to ghFluid

    Adding to ghfFluid

    Adding to turbulence

Selecting turbulence model type RAS
Selecting RAS turbulence model realizableKE
RAS
{
    RASModel        realizableKE;
    turbulence      on;
    printCoeffs     on;
    A0              4;
    C2              1.9;
    sigmak          1;
    sigmaEps        1.2;
}

Radiation model not active: radiationProperties not found
Selecting radiationModel none
    Adding MRF

No MRF models present

    Adding fvOptions

Creating finite volume options from "system/fvOptions"

Selecting finite volume options type limitTemperature
    Source: limitT
    State: active
    - selecting all cells
    - selected 8327 cell(s) with volume 15.88299
*** Reading solid mesh thermophysical properties for region pcb

    Adding to thermos

Selecting thermodynamics package 
{
    type            heSolidThermo;
    mixture         pureMixture;
    transport       constIso;
    thermo          hConst;
    equationOfState rhoConst;
    specie          specie;
    energy          sensibleEnthalpy;
}

    Adding to radiations

Radiation model not active: radiationProperties not found
Selecting radiationModel none
    Adding fvOptions

Creating finite volume options from "system/fvOptions"

Selecting finite volume options type limitTemperature
    Source: limitT
    State: active
    - selecting all cells
    - selected 652 cell(s) with volume 1.3137631
*** Reading solid mesh thermophysical properties for region component_0

    Adding to thermos

Selecting thermodynamics package 
{
    type            heSolidThermo;
    mixture         pureMixture;
    transport       constIso;
    thermo          hConst;
    equationOfState rhoConst;
    specie          specie;
    energy          sensibleEnthalpy;
}

    Adding to radiations

Radiation model not active: radiationProperties not found
Selecting radiationModel none
    Adding fvOptions

Creating finite volume options from "system/fvOptions"

Selecting finite volume options type scalarSemiImplicitSource
    Source: v_CPU_AbsoluteEnergySource
    State: active
    - selecting cells using cellZones (component_0)
    - selected 851 cell(s) with volume 1.8131124
Selecting finite volume options type limitTemperature
    Source: limitT
    State: active
    - selecting all cells
    - selected 851 cell(s) with volume 1.8131124
*** Reading solid mesh thermophysical properties for region component_1

    Adding to thermos

Selecting thermodynamics package 
{
    type            heSolidThermo;
    mixture         pureMixture;
    transport       constIso;
    thermo          hConst;
    equationOfState rhoConst;
    specie          specie;
    energy          sensibleEnthalpy;
}

    Adding to radiations

Radiation model not active: radiationProperties not found
Selecting radiationModel none
    Adding fvOptions

Creating finite volume options from "system/fvOptions"

Selecting finite volume options type scalarSemiImplicitSource
    Source: v_CPU_AbsoluteEnergySource
    State: active
    - selecting cells using cellZones (component_1)
    - selected 272 cell(s) with volume 0.52818951
Selecting finite volume options type limitTemperature
    Source: limitT
    State: active
    - selecting all cells
    - selected 272 cell(s) with volume 0.52818951
*** Reading solid mesh thermophysical properties for region component_2

    Adding to thermos

Selecting thermodynamics package 
{
    type            heSolidThermo;
    mixture         pureMixture;
    transport       constIso;
    thermo          hConst;
    equationOfState rhoConst;
    specie          specie;
    energy          sensibleEnthalpy;
}

    Adding to radiations

Radiation model not active: radiationProperties not found
Selecting radiationModel none
    Adding fvOptions

Creating finite volume options from "system/fvOptions"

Selecting finite volume options type scalarSemiImplicitSource
    Source: v_CPU_AbsoluteEnergySource
    State: active
    - selecting cells using cellZones (component_2)
    - selected 204 cell(s) with volume 0.39603163
Selecting finite volume options type limitTemperature
    Source: limitT
    State: active
    - selecting all cells
    - selected 204 cell(s) with volume 0.39603163
*** Reading solid mesh thermophysical properties for region component_3

    Adding to thermos

Selecting thermodynamics package 
{
    type            heSolidThermo;
    mixture         pureMixture;
    transport       constIso;
    thermo          hConst;
    equationOfState rhoConst;
    specie          specie;
    energy          sensibleEnthalpy;
}

    Adding to radiations

Radiation model not active: radiationProperties not found
Selecting radiationModel none
    Adding fvOptions

Creating finite volume options from "system/fvOptions"

Selecting finite volume options type scalarSemiImplicitSource
    Source: v_CPU_AbsoluteEnergySource
    State: active
    - selecting cells using cellZones (component_3)
    - selected 32 cell(s) with volume 0.046119702
Selecting finite volume options type limitTemperature
    Source: limitT
    State: active
    - selecting all cells
    - selected 32 cell(s) with volume 0.046119702
*** Reading solid mesh thermophysical properties for region component_4

    Adding to thermos

Selecting thermodynamics package 
{
    type            heSolidThermo;
    mixture         pureMixture;
    transport       constIso;
    thermo          hConst;
    equationOfState rhoConst;
    specie          specie;
    energy          sensibleEnthalpy;
}

    Adding to radiations

Radiation model not active: radiationProperties not found
Selecting radiationModel none
    Adding fvOptions

Creating finite volume options from "system/fvOptions"

Selecting finite volume options type scalarSemiImplicitSource
    Source: v_CPU_AbsoluteEnergySource
    State: active
    - selecting cells using cellZones (component_4)
    - selected 12 cell(s) with volume 0.019793326
Selecting finite volume options type limitTemperature
    Source: limitT
    State: active
    - selecting all cells
    - selected 12 cell(s) with volume 0.019793326
Create fvMatrixAssembly.
--> FOAM Warning : 

    failed lookup of region0 (objectRegistry case_48)
    available objects of type objectRegistry:
7(component_3 component_0 component_1 fluid pcb component_4 component_2)


    From const Type& Foam::objectRegistry::lookupObject(const Foam::word&, bool) const [with Type = Foam::objectRegistry]
    in file db/objectRegistry/objectRegistryTemplates.C at line 628.
--> loading function object 'limitT'

Time = 1


Solving for fluid region fluid
DILUPBiCGStab:  Solving for Ux, Initial residual = 1, Final residual = 0.029731331, No Iterations 2
DILUPBiCGStab:  Solving for Uy, Initial residual = 1, Final residual = 0.023184108, No Iterations 2

Solving energy coupled regions
Creating lduPrimitiveAssembly: lduAssembly456789
DILUPBiCGStab:  Solving for h, Initial residual = 0.0041025338, Final residual = 0.00012312068, No Iterations 1
limitTemperature=limitT, Type=Lower, LimitedCells=0, CellsPercent=0, Tmin=250, UnlimitedTmin=300
limitTemperature=limitT, Type=Upper, LimitedCells=0, CellsPercent=0, Tmax=6000, UnlimitedTmax=300
limitTemperature=limitT, Type=Lower, LimitedCells=0, CellsPercent=0, Tmin=250, UnlimitedTmin=300
limitTemperature=limitT, Type=Upper, LimitedCells=0, CellsPercent=0, Tmax=6000, UnlimitedTmax=300
limitTemperature=limitT, Type=Lower, LimitedCells=0, CellsPercent=0, Tmin=250, UnlimitedTmin=300
limitTemperature=limitT, Type=Upper, LimitedCells=0, CellsPercent=0, Tmax=6000, UnlimitedTmax=300
limitTemperature=limitT, Type=Lower, LimitedCells=0, CellsPercent=0, Tmin=250, UnlimitedTmin=300
limitTemperature=limitT, Type=Upper, LimitedCells=0, CellsPercent=0, Tmax=6000, UnlimitedTmax=300
limitTemperature=limitT, Type=Lower, LimitedCells=0, CellsPercent=0, Tmin=250, UnlimitedTmin=300
limitTemperature=limitT, Type=Upper, LimitedCells=0, CellsPercent=0, Tmax=6000, UnlimitedTmax=300
limitTemperature=limitT, Type=Lower, LimitedCells=0, CellsPercent=0, Tmin=250, UnlimitedTmin=300
limitTemperature=limitT, Type=Upper, LimitedCells=0, CellsPercent=0, Tmax=6000, UnlimitedTmax=300
limitTemperature=limitT, Type=Lower, LimitedCells=0, CellsPercent=0, Tmin=250, UnlimitedTmin=300
limitTemperature=limitT, Type=Upper, LimitedCells=0, CellsPercent=0, Tmax=6000, UnlimitedTmax=300
DICPBiCGStab:  Solving for p_rgh, Initial residual = 1, Final residual = 0.085096468, No Iterations 145
time step continuity errors : sum local = 0.02202292, global = 0.014248105, cumulative = 0.014248105
Min/max rho:1.1763392 1.1766941
DILUPBiCGStab:  Solving for epsilon, Initial residual = 0.80495776, Final residual = 0.002094207, No Iterations 1
DILUPBiCGStab:  Solving for k, Initial residual = 1, Final residual = 0.019364233, No Iterations 1
ExecutionTime = 0.33 s  ClockTime = 0 s

volFieldValue fluid write:
    volAverage(fluid) of T = 300.00009

volFieldValue pcb write:
    volAverage(pcb) of T = 300.00513

volFieldValue component_0 write:
    volAverage(component_0) of T = 300.0277

volFieldValue component_1 write:
    volAverage(component_1) of T = 300.29223

volFieldValue component_2 write:
    volAverage(component_2) of T = 300.29581

volFieldValue component_3 write:
    volAverage(component_3) of T = 303.35666

volFieldValue component_4 write:
    volAverage(component_4) of T = 314.57409

Time = 2


Solving for fluid region fluid
DILUPBiCGStab:  Solving for Ux, Initial residual = 0.60184012, Final residual = 0.01429801, No Iterations 2
DILUPBiCGStab:  Solving for Uy, Initial residual = 0.51669562, Final residual = 0.012457524, No Iterations 2

Solving energy coupled regions
Using lduPrimitiveAssembly: lduAssembly456789
DILUPBiCGStab:  Solving for h, Initial residual = 0.0039908237, Final residual = 0.00010555089, No Iterations 1
limitTemperature=limitT, Type=Lower, LimitedCells=0, CellsPercent=0, Tmin=250, UnlimitedTmin=299.98031
limitTemperature=limitT, Type=Upper, LimitedCells=0, CellsPercent=0, Tmax=6000, UnlimitedTmax=300.16136
limitTemperature=limitT, Type=Lower, LimitedCells=0, CellsPercent=0, Tmin=250, UnlimitedTmin=299.9901
limitTemperature=limitT, Type=Upper, LimitedCells=0, CellsPercent=0, Tmax=6000, UnlimitedTmax=300.76766
limitTemperature=limitT, Type=Lower, LimitedCells=0, CellsPercent=0, Tmin=250, UnlimitedTmin=300.01644
limitTemperature=limitT, Type=Upper, LimitedCells=0, CellsPercent=0, Tmax=6000, UnlimitedTmax=300.03203
limitTemperature=limitT, Type=Lower, LimitedCells=0, CellsPercent=0, Tmin=250, UnlimitedTmin=300.26061
limitTemperature=limitT, Type=Upper, LimitedCells=0, CellsPercent=0, Tmax=6000, UnlimitedTmax=300.38842
limitTemperature=limitT, Type=Lower, LimitedCells=0, CellsPercent=0, Tmin=250, UnlimitedTmin=300.2638
limitTemperature=limitT, Type=Upper, LimitedCells=0, CellsPercent=0, Tmax=6000, UnlimitedTmax=300.38867
limitTemperature=limitT, Type=Lower, LimitedCells=0, CellsPercent=0, Tmin=250, UnlimitedTmin=302.94959
limitTemperature=limitT, Type=Upper, LimitedCells=0, CellsPercent=0, Tmax=6000, UnlimitedTmax=304.05676
limitTemperature=limitT, Type=Lower, LimitedCells=0, CellsPercent=0, Tmin=250, UnlimitedTmin=313.55157
limitTemperature=limitT, Type=Upper, LimitedCells=0, CellsPercent=0, Tmax=6000, UnlimitedTmax=316.3841
DICPBiCGStab:  Solving for p_rgh, Initial residual = 0.096587896, Final residual = 0.0045729649, No Iterations 174
time step continuity errors : sum local = 0.013708117, global = 0.0032363137, cumulative = 0.017484419
Min/max rho:1.1472946 1.1772233
DILUPBiCGStab:  Solving for epsilon, Initial residual = 0.78445867, Final residual = 0.0037932902, No Iterations 1
DILUPBiCGStab:  Solving for k, Initial residual = 0.83007105, Final residual = 0.020472821, No Iterations 1
ExecutionTime = 0.53 s  ClockTime = 0 s

volFieldValue fluid write:
    volAverage(fluid) of T = 300.00021

volFieldValue pcb write:
    volAverage(pcb) of T = 300.01477

volFieldValue component_0 write:
    volAverage(component_0) of T = 300.05528

volFieldValue component_1 write:
    volAverage(component_1) of T = 300.58187

volFieldValue component_2 write:
    volAverage(component_2) of T = 300.58878

volFieldValue component_3 write:
    volAverage(component_3) of T = 306.62341

volFieldValue component_4 write:
    volAverage(component_4) of T = 328.14146

Time = 3


Solving for fluid region fluid
DILUPBiCGStab:  Solving for Ux, Initial residual = 0.4526122, Final residual = 0.011562757, No Iterations 2
DILUPBiCGStab:  Solving for Uy, Initial residual = 0.36127757, Final residual = 0.011933403, No Iterations 2

Solving energy coupled regions
Using lduPrimitiveAssembly: lduAssembly456789
DILUPBiCGStab:  Solving for h, Initial residual = 0.0034642653, Final residual = 0.00010461262, No Iterations 1
limitTemperature=limitT, Type=Lower, LimitedCells=0, CellsPercent=0, Tmin=250, UnlimitedTmin=299.98398
limitTemperature=limitT, Type=Upper, LimitedCells=0, CellsPercent=0, Tmax=6000, UnlimitedTmax=300.14181
limitTemperature=limitT, Type=Lower, LimitedCells=0, CellsPercent=0, Tmin=250, UnlimitedTmin=299.98533
limitTemperature=limitT, Type=Upper, LimitedCells=0, CellsPercent=0, Tmax=6000, UnlimitedTmax=302.12303
limitTemperature=limitT, Type=Lower, LimitedCells=0, CellsPercent=0, Tmin=250, UnlimitedTmin=300.03491
limitTemperature=limitT, Type=Upper, LimitedCells=0, CellsPercent=0, Tmax=6000, UnlimitedTmax=300.06252
limitTemperature=limitT, Type=Lower, LimitedCells=0, CellsPercent=0, Tmin=250, UnlimitedTmin=300.52688
limitTemperature=limitT, Type=Upper, LimitedCells=0, CellsPercent=0, Tmax=6000, UnlimitedTmax=300.7308
limitTemperature=limitT, Type=Lower, LimitedCells=0, CellsPercent=0, Tmin=250, UnlimitedTmin=300.53624
limitTemperature=limitT, Type=Upper, LimitedCells=0, CellsPercent=0, Tmax=6000, UnlimitedTmax=300.73153
limitTemperature=limitT, Type=Lower, LimitedCells=0, CellsPercent=0, Tmin=250, UnlimitedTmin=306.01522
limitTemperature=limitT, Type=Upper, LimitedCells=0, CellsPercent=0, Tmax=6000, UnlimitedTmax=307.61862
limitTemperature=limitT, Type=Lower, LimitedCells=0, CellsPercent=0, Tmin=250, UnlimitedTmin=326.76832
limitTemperature=limitT, Type=Upper, LimitedCells=0, CellsPercent=0, Tmax=6000, UnlimitedTmax=330.67835
DICPBiCGStab:  Solving for p_rgh, Initial residual = 0.058673519, Final residual = 0.0058235513, No Iterations 25
time step continuity errors : sum local = 0.033494593, global = 0.0048964295, cumulative = 0.022380848
Min/max rho:1.1088231 1.17801
DILUPBiCGStab:  Solving for epsilon, Initial residual = 0.68338379, Final residual = 0.005316412, No Iterations 1
DILUPBiCGStab:  Solving for k, Initial residual = 0.63527032, Final residual = 0.019406255, No Iterations 1
ExecutionTime = 0.61 s  ClockTime = 0 s

volFieldValue fluid write:
    volAverage(fluid) of T = 300.00101

volFieldValue pcb write:
    volAverage(pcb) of T = 300.02799

volFieldValue component_0 write:
    volAverage(component_0) of T = 300.08198

volFieldValue component_1 write:
    volAverage(component_1) of T = 300.85338

volFieldValue component_2 write:
    volAverage(component_2) of T = 300.86356

volFieldValue component_3 write:
    volAverage(component_3) of T = 309.14258

volFieldValue component_4 write:
    volAverage(component_4) of T = 332.00303

Time = 4


Solving for fluid region fluid
DILUPBiCGStab:  Solving for Ux, Initial residual = 0.27247666, Final residual = 0.0067615028, No Iterations 2
DILUPBiCGStab:  Solving for Uy, Initial residual = 0.22168901, Final residual = 0.0063879656, No Iterations 2

Solving energy coupled regions
Using lduPrimitiveAssembly: lduAssembly456789
DILUPBiCGStab:  Solving for h, Initial residual = 0.0032584913, Final residual = 0.00011984889, No Iterations 1
limitTemperature=limitT, Type=Lower, LimitedCells=0, CellsPercent=0, Tmin=250, UnlimitedTmin=299.98737
limitTemperature=limitT, Type=Upper, LimitedCells=0, CellsPercent=0, Tmax=6000, UnlimitedTmax=300.77574
limitTemperature=limitT, Type=Lower, LimitedCells=0, CellsPercent=0, Tmin=250, UnlimitedTmin=299.98663
limitTemperature=limitT, Type=Upper, LimitedCells=0, CellsPercent=0, Tmax=6000, UnlimitedTmax=303.5708
limitTemperature=limitT, Type=Lower, LimitedCells=0, CellsPercent=0, Tmin=250, UnlimitedTmin=300.05425
limitTemperature=limitT, Type=Upper, LimitedCells=0, CellsPercent=0, Tmax=6000, UnlimitedTmax=300.09208
limitTemperature=limitT, Type=Lower, LimitedCells=0, CellsPercent=0, Tmin=250, UnlimitedTmin=300.79535
limitTemperature=limitT, Type=Upper, LimitedCells=0, CellsPercent=0, Tmax=6000, UnlimitedTmax=300.99958
limitTemperature=limitT, Type=Lower, LimitedCells=0, CellsPercent=0, Tmin=250, UnlimitedTmin=300.81097
limitTemperature=limitT, Type=Upper, LimitedCells=0, CellsPercent=0, Tmax=6000, UnlimitedTmax=301.00637
limitTemperature=limitT, Type=Lower, LimitedCells=0, CellsPercent=0, Tmin=250, UnlimitedTmin=308.47481
limitTemperature=limitT, Type=Upper, LimitedCells=0, CellsPercent=0, Tmax=6000, UnlimitedTmax=310.30573
limitTemperature=limitT, Type=Lower, LimitedCells=0, CellsPercent=0, Tmin=250, UnlimitedTmin=324.71558
limitTemperature=limitT, Type=Upper, LimitedCells=0, CellsPercent=0, Tmax=6000, UnlimitedTmax=337.17553
DICPBiCGStab:  Solving for p_rgh, Initial residual = 0.092122634, Final residual = 0.0091959601, No Iterations 14
time step continuity errors : sum local = 0.053781928, global = 0.011457185, cumulative = 0.033838033
Min/max rho:1.0791188 1.1784129
DILUPBiCGStab:  Solving for epsilon, Initial residual = 0.53546886, Final residual = 0.0076008716, No Iterations 1
DILUPBiCGStab:  Solving for k, Initial residual = 0.46667644, Final residual = 0.018577608, No Iterations 1
ExecutionTime = 0.64 s  ClockTime = 0 s

volFieldValue fluid write:
    volAverage(fluid) of T = 300.00211

volFieldValue pcb write:
    volAverage(pcb) of T = 300.04372

volFieldValue component_0 write:
    volAverage(component_0) of T = 300.1079

volFieldValue component_1 write:
    volAverage(component_1) of T = 301.11095

volFieldValue component_2 write:
    volAverage(component_2) of T = 301.12429

volFieldValue component_3 write:
    volAverage(component_3) of T = 311.22012

volFieldValue component_4 write:
    volAverage(component_4) of T = 330.41406

Time = 5


Solving for fluid region fluid
DILUPBiCGStab:  Solving for Ux, Initial residual = 0.16969216, Final residual = 0.004358432, No Iterations 2
DILUPBiCGStab:  Solving for Uy, Initial residual = 0.12472404, Final residual = 0.003061726, No Iterations 2

Solving energy coupled regions
Using lduPrimitiveAssembly: lduAssembly456789
DILUPBiCGStab:  Solving for h, Initial residual = 0.0030537298, Final residual = 9.0874936e-05, No Iterations 1
limitTemperature=limitT, Type=Lower, LimitedCells=0, CellsPercent=0, Tmin=250, UnlimitedTmin=299.98887
limitTemperature=limitT, Type=Upper, LimitedCells=0, CellsPercent=0, Tmax=6000, UnlimitedTmax=302.09235
limitTemperature=limitT, Type=Lower, LimitedCells=0, CellsPercent=0, Tmin=250, UnlimitedTmin=299.98857
limitTemperature=limitT, Type=Upper, LimitedCells=0, CellsPercent=0, Tmax=6000, UnlimitedTmax=304.96646
limitTemperature=limitT, Type=Lower, LimitedCells=0, CellsPercent=0, Tmin=250, UnlimitedTmin=300.07387
limitTemperature=limitT, Type=Upper, LimitedCells=0, CellsPercent=0, Tmax=6000, UnlimitedTmax=300.12089
limitTemperature=limitT, Type=Lower, LimitedCells=0, CellsPercent=0, Tmin=250, UnlimitedTmin=300.95644
limitTemperature=limitT, Type=Upper, LimitedCells=0, CellsPercent=0, Tmax=6000, UnlimitedTmax=301.24966
limitTemperature=limitT, Type=Lower, LimitedCells=0, CellsPercent=0, Tmin=250, UnlimitedTmin=301.01723
limitTemperature=limitT, Type=Upper, LimitedCells=0, CellsPercent=0, Tmax=6000, UnlimitedTmax=301.25422
limitTemperature=limitT, Type=Lower, LimitedCells=0, CellsPercent=0, Tmin=250, UnlimitedTmin=308.53846
limitTemperature=limitT, Type=Upper, LimitedCells=0, CellsPercent=0, Tmax=6000, UnlimitedTmax=312.93934
limitTemperature=limitT, Type=Lower, LimitedCells=0, CellsPercent=0, Tmin=250, UnlimitedTmin=312.69401
limitTemperature=limitT, Type=Upper, LimitedCells=0, CellsPercent=0, Tmax=6000, UnlimitedTmax=340.44009
DICPBiCGStab:  Solving for p_rgh, Initial residual = 0.10757223, Final residual = 0.0099366867, No Iterations 59
time step continuity errors : sum local = 0.056829409, global = 0.050946737, cumulative = 0.08478477
Min/max rho:1.0591783 1.1786117
DILUPBiCGStab:  Solving for epsilon, Initial residual = 0.33790971, Final residual = 0.0071619833, No Iterations 1
DILUPBiCGStab:  Solving for k, Initial residual = 0.34507427, Final residual = 0.015783988, No Iterations 1
ExecutionTime = 0.74 s  ClockTime = 0 s

volFieldValue fluid write:
    volAverage(fluid) of T = 300.00256

volFieldValue pcb write:
    volAverage(pcb) of T = 300.05892

volFieldValue component_0 write:
    volAverage(component_0) of T = 300.13358

volFieldValue component_1 write:
    volAverage(component_1) of T = 301.36305

volFieldValue component_2 write:
    volAverage(component_2) of T = 301.37926

volFieldValue component_3 write:
    volAverage(component_3) of T = 313.13329

volFieldValue component_4 write:
    volAverage(component_4) of T = 330.42671

Time = 6


Solving for fluid region fluid
DILUPBiCGStab:  Solving for Ux, Initial residual = 0.12027679, Final residual = 0.0030043834, No Iterations 2
DILUPBiCGStab:  Solving for Uy, Initial residual = 0.071373615, Final residual = 0.0018801557, No Iterations 2

Solving energy coupled regions
Using lduPrimitiveAssembly: lduAssembly456789
DILUPBiCGStab:  Solving for h, Initial residual = 0.0029777967, Final residual = 0.00010448836, No Iterations 1
limitTemperature=limitT, Type=Lower, LimitedCells=0, CellsPercent=0, Tmin=250, UnlimitedTmin=299.98989
limitTemperature=limitT, Type=Upper, LimitedCells=0, CellsPercent=0, Tmax=6000, UnlimitedTmax=300.98721
limitTemperature=limitT, Type=Lower, LimitedCells=0, CellsPercent=0, Tmin=250, UnlimitedTmin=299.98983
limitTemperature=limitT, Type=Upper, LimitedCells=0, CellsPercent=0, Tmax=6000, UnlimitedTmax=306.30959
limitTemperature=limitT, Type=Lower, LimitedCells=0, CellsPercent=0, Tmin=250, UnlimitedTmin=300.09314
limitTemperature=limitT, Type=Upper, LimitedCells=0, CellsPercent=0, Tmax=6000, UnlimitedTmax=300.14958
limitTemperature=limitT, Type=Lower, LimitedCells=0, CellsPercent=0, Tmin=250, UnlimitedTmin=301.06234
limitTemperature=limitT, Type=Upper, LimitedCells=0, CellsPercent=0, Tmax=6000, UnlimitedTmax=301.53535
limitTemperature=limitT, Type=Lower, LimitedCells=0, CellsPercent=0, Tmin=250, UnlimitedTmin=301.14073
limitTemperature=limitT, Type=Upper, LimitedCells=0, CellsPercent=0, Tmax=6000, UnlimitedTmax=301.53006
limitTemperature=limitT, Type=Lower, LimitedCells=0, CellsPercent=0, Tmin=250, UnlimitedTmin=309.13247
limitTemperature=limitT, Type=Upper, LimitedCells=0, CellsPercent=0, Tmax=6000, UnlimitedTmax=315.41471
limitTemperature=limitT, Type=Lower, LimitedCells=0, CellsPercent=0, Tmin=250, UnlimitedTmin=311.22243
limitTemperature=limitT, Type=Upper, LimitedCells=0, CellsPercent=0, Tmax=6000, UnlimitedTmax=341.59951
DICPBiCGStab:  Solving for p_rgh, Initial residual = 0.1335921, Final residual = 0.012711538, No Iterations 81
time step continuity errors : sum local = 0.058262318, global = 0.052882512, cumulative = 0.13766728
Min/max rho:1.0474726 1.1785257
DILUPBiCGStab:  Solving for epsilon, Initial residual = 0.22338048, Final residual = 0.0054713777, No Iterations 1
DILUPBiCGStab:  Solving for k, Initial residual = 0.27083004, Final residual = 0.012098342, No Iterations 1
ExecutionTime = 0.91 s  ClockTime = 1 s

volFieldValue fluid write:
    volAverage(fluid) of T = 300.00305

volFieldValue pcb write:
    volAverage(pcb) of T = 300.07469

volFieldValue component_0 write:
    volAverage(component_0) of T = 300.15869

volFieldValue component_1 write:
    volAverage(component_1) of T = 301.60782

volFieldValue component_2 write:
    volAverage(component_2) of T = 301.62614

volFieldValue component_3 write:
    volAverage(component_3) of T = 314.90025

volFieldValue component_4 write:
    volAverage(component_4) of T = 333.85433

Time = 7


Solving for fluid region fluid
DILUPBiCGStab:  Solving for Ux, Initial residual = 0.077842142, Final residual = 0.0018051528, No Iterations 2
DILUPBiCGStab:  Solving for Uy, Initial residual = 0.066672708, Final residual = 0.0017695531, No Iterations 2

Solving energy coupled regions
Using lduPrimitiveAssembly: lduAssembly456789
DILUPBiCGStab:  Solving for h, Initial residual = 0.0029948826, Final residual = 9.5131909e-05, No Iterations 1
limitTemperature=limitT, Type=Lower, LimitedCells=0, CellsPercent=0, Tmin=250, UnlimitedTmin=299.99117
limitTemperature=limitT, Type=Upper, LimitedCells=0, CellsPercent=0, Tmax=6000, UnlimitedTmax=301.04935
limitTemperature=limitT, Type=Lower, LimitedCells=0, CellsPercent=0, Tmin=250, UnlimitedTmin=299.99103
limitTemperature=limitT, Type=Upper, LimitedCells=0, CellsPercent=0, Tmax=6000, UnlimitedTmax=307.57851
limitTemperature=limitT, Type=Lower, LimitedCells=0, CellsPercent=0, Tmin=250, UnlimitedTmin=300.10823
limitTemperature=limitT, Type=Upper, LimitedCells=0, CellsPercent=0, Tmax=6000, UnlimitedTmax=300.17785
limitTemperature=limitT, Type=Lower, LimitedCells=0, CellsPercent=0, Tmin=250, UnlimitedTmin=301.19222
limitTemperature=limitT, Type=Upper, LimitedCells=0, CellsPercent=0, Tmax=6000, UnlimitedTmax=301.8212
limitTemperature=limitT, Type=Lower, LimitedCells=0, CellsPercent=0, Tmin=250, UnlimitedTmin=301.29286
limitTemperature=limitT, Type=Upper, LimitedCells=0, CellsPercent=0, Tmax=6000, UnlimitedTmax=301.80741
limitTemperature=limitT, Type=Lower, LimitedCells=0, CellsPercent=0, Tmin=250, UnlimitedTmin=310.47637
limitTemperature=limitT, Type=Upper, LimitedCells=0, CellsPercent=0, Tmax=6000, UnlimitedTmax=317.6169
limitTemperature=limitT, Type=Lower, LimitedCells=0, CellsPercent=0, Tmin=250, UnlimitedTmin=321.15955
limitTemperature=limitT, Type=Upper, LimitedCells=0, CellsPercent=0, Tmax=6000, UnlimitedTmax=342.8143
DICPBiCGStab:  Solving for p_rgh, Initial residual = 0.20406788, Final residual = 0.013917931, No Iterations 104
time step continuity errors : sum local = 0.036923287, global = -0.0062379339, cumulative = 0.13142935
Min/max rho:1.0398033 1.1779317
DILUPBiCGStab:  Solving for epsilon, Initial residual = 0.15665017, Final residual = 0.0036722255, No Iterations 1
DILUPBiCGStab:  Solving for k, Initial residual = 0.22505573, Final residual = 0.009210074, No Iterations 1
ExecutionTime = 1.02 s  ClockTime = 1 s

volFieldValue fluid write:
    volAverage(fluid) of T = 300.00361

volFieldValue pcb write:
    volAverage(pcb) of T = 300.09258

volFieldValue component_0 write:
    volAverage(component_0) of T = 300.18353

volFieldValue component_1 write:
    volAverage(component_1) of T = 301.84901

volFieldValue component_2 write:
    volAverage(component_2) of T = 301.86889

volFieldValue component_3 write:
    volAverage(component_3) of T = 316.5336

volFieldValue component_4 write:
    volAverage(component_4) of T = 337.88469

Time = 8


Solving for fluid region fluid
DILUPBiCGStab:  Solving for Ux, Initial residual = 0.13281571, Final residual = 0.0040894712, No Iterations 2
DILUPBiCGStab:  Solving for Uy, Initial residual = 0.10933734, Final residual = 0.002460543, No Iterations 2

Solving energy coupled regions
Using lduPrimitiveAssembly: lduAssembly456789
DILUPBiCGStab:  Solving for h, Initial residual = 0.0030243536, Final residual = 0.00010417197, No Iterations 1
limitTemperature=limitT, Type=Lower, LimitedCells=0, CellsPercent=0, Tmin=250, UnlimitedTmin=299.99055
limitTemperature=limitT, Type=Upper, LimitedCells=0, CellsPercent=0, Tmax=6000, UnlimitedTmax=301.00304
limitTemperature=limitT, Type=Lower, LimitedCells=0, CellsPercent=0, Tmin=250, UnlimitedTmin=299.99256
limitTemperature=limitT, Type=Upper, LimitedCells=0, CellsPercent=0, Tmax=6000, UnlimitedTmax=308.82362
limitTemperature=limitT, Type=Lower, LimitedCells=0, CellsPercent=0, Tmin=250, UnlimitedTmin=300.12138
limitTemperature=limitT, Type=Upper, LimitedCells=0, CellsPercent=0, Tmax=6000, UnlimitedTmax=300.20591
limitTemperature=limitT, Type=Lower, LimitedCells=0, CellsPercent=0, Tmin=250, UnlimitedTmin=301.29757
limitTemperature=limitT, Type=Upper, LimitedCells=0, CellsPercent=0, Tmax=6000, UnlimitedTmax=302.10424
limitTemperature=limitT, Type=Lower, LimitedCells=0, CellsPercent=0, Tmin=250, UnlimitedTmin=301.45324
limitTemperature=limitT, Type=Upper, LimitedCells=0, CellsPercent=0, Tmax=6000, UnlimitedTmax=302.08433
limitTemperature=limitT, Type=Lower, LimitedCells=0, CellsPercent=0, Tmin=250, UnlimitedTmin=311.86566
limitTemperature=limitT, Type=Upper, LimitedCells=0, CellsPercent=0, Tmax=6000, UnlimitedTmax=319.68304
limitTemperature=limitT, Type=Lower, LimitedCells=0, CellsPercent=0, Tmin=250, UnlimitedTmin=329.31979
limitTemperature=limitT, Type=Upper, LimitedCells=0, CellsPercent=0, Tmax=6000, UnlimitedTmax=344.82884
DICPBiCGStab:  Solving for p_rgh, Initial residual = 0.15352785, Final residual = 0.014970973, No Iterations 48
time step continuity errors : sum local = 0.057302915, global = 0.034726094, cumulative = 0.16615544
Min/max rho:1.0329571 1.1770606
DILUPBiCGStab:  Solving for epsilon, Initial residual = 0.099386431, Final residual = 0.0030054622, No Iterations 1
DILUPBiCGStab:  Solving for k, Initial residual = 0.17691127, Final residual = 0.008149033, No Iterations 1
ExecutionTime = 1.11 s  ClockTime = 1 s

volFieldValue fluid write:
    volAverage(fluid) of T = 300.00443

volFieldValue pcb write:
    volAverage(pcb) of T = 300.1127

volFieldValue component_0 write:
    volAverage(component_0) of T = 300.20801

volFieldValue component_1 write:
    volAverage(component_1) of T = 302.08718

volFieldValue component_2 write:
    volAverage(component_2) of T = 302.10718

volFieldValue component_3 write:
    volAverage(component_3) of T = 318.06578

volFieldValue component_4 write:
    volAverage(component_4) of T = 340.03687

Time = 9


Solving for fluid region fluid
DILUPBiCGStab:  Solving for Ux, Initial residual = 0.1471716, Final residual = 0.0037844218, No Iterations 2
DILUPBiCGStab:  Solving for Uy, Initial residual = 0.11280212, Final residual = 0.0023640713, No Iterations 2

Solving energy coupled regions
Using lduPrimitiveAssembly: lduAssembly456789
DILUPBiCGStab:  Solving for h, Initial residual = 0.002827307, Final residual = 8.0178896e-05, No Iterations 1
limitTemperature=limitT, Type=Lower, LimitedCells=0, CellsPercent=0, Tmin=250, UnlimitedTmin=299.98728
limitTemperature=limitT, Type=Upper, LimitedCells=0, CellsPercent=0, Tmax=6000, UnlimitedTmax=301.38505
limitTemperature=limitT, Type=Lower, LimitedCells=0, CellsPercent=0, Tmin=250, UnlimitedTmin=299.99424
limitTemperature=limitT, Type=Upper, LimitedCells=0, CellsPercent=0, Tmax=6000, UnlimitedTmax=310.09582
limitTemperature=limitT, Type=Lower, LimitedCells=0, CellsPercent=0, Tmin=250, UnlimitedTmin=300.13514
limitTemperature=limitT, Type=Upper, LimitedCells=0, CellsPercent=0, Tmax=6000, UnlimitedTmax=300.23376
limitTemperature=limitT, Type=Lower, LimitedCells=0, CellsPercent=0, Tmin=250, UnlimitedTmin=301.40203
limitTemperature=limitT, Type=Upper, LimitedCells=0, CellsPercent=0, Tmax=6000, UnlimitedTmax=302.38529
limitTemperature=limitT, Type=Lower, LimitedCells=0, CellsPercent=0, Tmin=250, UnlimitedTmin=301.59373
limitTemperature=limitT, Type=Upper, LimitedCells=0, CellsPercent=0, Tmax=6000, UnlimitedTmax=302.35944
limitTemperature=limitT, Type=Lower, LimitedCells=0, CellsPercent=0, Tmin=250, UnlimitedTmin=312.54212
limitTemperature=limitT, Type=Upper, LimitedCells=0, CellsPercent=0, Tmax=6000, UnlimitedTmax=321.60641
limitTemperature=limitT, Type=Lower, LimitedCells=0, CellsPercent=0, Tmin=250, UnlimitedTmin=329.73024
limitTemperature=limitT, Type=Upper, LimitedCells=0, CellsPercent=0, Tmax=6000, UnlimitedTmax=347.25259
DICPBiCGStab:  Solving for p_rgh, Initial residual = 0.19515892, Final residual = 0.01919668, No Iterations 6
time step continuity errors : sum local = 0.076895479, global = 0.043030739, cumulative = 0.20918618
Min/max rho:1.0255632 1.1767438
DILUPBiCGStab:  Solving for epsilon, Initial residual = 0.076815661, Final residual = 0.0027323504, No Iterations 1
DILUPBiCGStab:  Solving for k, Initial residual = 0.15923049, Final residual = 0.0026133745, No Iterations 2
ExecutionTime = 1.14 s  ClockTime = 1 s

volFieldValue fluid write:
    volAverage(fluid) of T = 300.00534

volFieldValue pcb write:
    volAverage(pcb) of T = 300.13461

volFieldValue component_0 write:
    volAverage(component_0) of T = 300.23239

volFieldValue component_1 write:
    volAverage(component_1) of T = 302.32642

volFieldValue component_2 write:
    volAverage(component_2) of T = 302.34356

volFieldValue component_3 write:
    volAverage(component_3) of T = 319.53537

volFieldValue component_4 write:
    volAverage(component_4) of T = 340.51274

Time = 10


Solving for fluid region fluid
DILUPBiCGStab:  Solving for Ux, Initial residual = 0.16894594, Final residual = 0.0047061109, No Iterations 2
DILUPBiCGStab:  Solving for Uy, Initial residual = 0.10800998, Final residual = 0.0024651938, No Iterations 2

Solving energy coupled regions
Using lduPrimitiveAssembly: lduAssembly456789
DILUPBiCGStab:  Solving for h, Initial residual = 0.0028275745, Final residual = 2.1314165e-05, No Iterations 2
limitTemperature=limitT, Type=Lower, LimitedCells=0, CellsPercent=0, Tmin=250, UnlimitedTmin=299.98032
limitTemperature=limitT, Type=Upper, LimitedCells=0, CellsPercent=0, Tmax=6000, UnlimitedTmax=301.95927
limitTemperature=limitT, Type=Lower, LimitedCells=0, CellsPercent=0, Tmin=250, UnlimitedTmin=299.99609
limitTemperature=limitT, Type=Upper, LimitedCells=0, CellsPercent=0, Tmax=6000, UnlimitedTmax=311.37564
limitTemperature=limitT, Type=Lower, LimitedCells=0, CellsPercent=0, Tmin=250, UnlimitedTmin=300.14893
limitTemperature=limitT, Type=Upper, LimitedCells=0, CellsPercent=0, Tmax=6000, UnlimitedTmax=300.26156
limitTemperature=limitT, Type=Lower, LimitedCells=0, CellsPercent=0, Tmin=250, UnlimitedTmin=301.55585
limitTemperature=limitT, Type=Upper, LimitedCells=0, CellsPercent=0, Tmax=6000, UnlimitedTmax=302.66331
limitTemperature=limitT, Type=Lower, LimitedCells=0, CellsPercent=0, Tmin=250, UnlimitedTmin=301.72673
limitTemperature=limitT, Type=Upper, LimitedCells=0, CellsPercent=0, Tmax=6000, UnlimitedTmax=302.63035
limitTemperature=limitT, Type=Lower, LimitedCells=0, CellsPercent=0, Tmin=250, UnlimitedTmin=313.14848
limitTemperature=limitT, Type=Upper, LimitedCells=0, CellsPercent=0, Tmax=6000, UnlimitedTmax=323.43067
limitTemperature=limitT, Type=Lower, LimitedCells=0, CellsPercent=0, Tmin=250, UnlimitedTmin=325.57806
limitTemperature=limitT, Type=Upper, LimitedCells=0, CellsPercent=0, Tmax=6000, UnlimitedTmax=349.847
DICPBiCGStab:  Solving for p_rgh, Initial residual = 0.20960738, Final residual = 0.019926335, No Iterations 32
time step continuity errors : sum local = 0.078118793, global = 0.013912552, cumulative = 0.22309873
Min/max rho:1.0180624 1.1766766
DILUPBiCGStab:  Solving for epsilon, Initial residual = 0.063375725, Final residual = 0.0023735522, No Iterations 1
DILUPBiCGStab:  Solving for k, Initial residual = 0.14137308, Final residual = 0.0025882648, No Iterations 2
ExecutionTime = 1.23 s  ClockTime = 1 s

volFieldValue fluid write:
    volAverage(fluid) of T = 300.0067

volFieldValue pcb write:
    volAverage(pcb) of T = 300.15943

volFieldValue component_0 write:
    volAverage(component_0) of T = 300.25713

volFieldValue component_1 write:
    volAverage(component_1) of T = 302.56729

volFieldValue component_2 write:
    volAverage(component_2) of T = 302.58214

volFieldValue component_3 write:
    volAverage(component_3) of T = 320.81002

volFieldValue component_4 write:
    volAverage(component_4) of T = 341.13612

Time = 11


Solving for fluid region fluid
DILUPBiCGStab:  Solving for Ux, Initial residual = 0.18236211, Final residual = 0.0047824077, No Iterations 2
DILUPBiCGStab:  Solving for Uy, Initial residual = 0.090207115, Final residual = 0.0022674305, No Iterations 2

Solving energy coupled regions
Using lduPrimitiveAssembly: lduAssembly456789
DILUPBiCGStab:  Solving for h, Initial residual = 0.0028663923, Final residual = 9.355604e-05, No Iterations 1
limitTemperature=limitT, Type=Lower, LimitedCells=0, CellsPercent=0, Tmin=250, UnlimitedTmin=299.9855
limitTemperature=limitT, Type=Upper, LimitedCells=0, CellsPercent=0, Tmax=6000, UnlimitedTmax=301.4512
limitTemperature=limitT, Type=Lower, LimitedCells=0, CellsPercent=0, Tmin=250, UnlimitedTmin=299.99752
limitTemperature=limitT, Type=Upper, LimitedCells=0, CellsPercent=0, Tmax=6000, UnlimitedTmax=312.67617
limitTemperature=limitT, Type=Lower, LimitedCells=0, CellsPercent=0, Tmin=250, UnlimitedTmin=300.16305
limitTemperature=limitT, Type=Upper, LimitedCells=0, CellsPercent=0, Tmax=6000, UnlimitedTmax=300.28961
limitTemperature=limitT, Type=Lower, LimitedCells=0, CellsPercent=0, Tmin=250, UnlimitedTmin=301.68709
limitTemperature=limitT, Type=Upper, LimitedCells=0, CellsPercent=0, Tmax=6000, UnlimitedTmax=302.94353
limitTemperature=limitT, Type=Lower, LimitedCells=0, CellsPercent=0, Tmin=250, UnlimitedTmin=301.83745
limitTemperature=limitT, Type=Upper, LimitedCells=0, CellsPercent=0, Tmax=6000, UnlimitedTmax=302.90138
limitTemperature=limitT, Type=Lower, LimitedCells=0, CellsPercent=0, Tmin=250, UnlimitedTmin=313.98683
limitTemperature=limitT, Type=Upper, LimitedCells=0, CellsPercent=0, Tmax=6000, UnlimitedTmax=325.0513
limitTemperature=limitT, Type=Lower, LimitedCells=0, CellsPercent=0, Tmin=250, UnlimitedTmin=323.44398
limitTemperature=limitT, Type=Upper, LimitedCells=0, CellsPercent=0, Tmax=6000, UnlimitedTmax=352.24749
DICPBiCGStab:  Solving for p_rgh, Initial residual = 0.18162214, Final residual = 0.018070201, No Iterations 32
time step continuity errors : sum local = 0.080217456, global = -0.0059962978, cumulative = 0.21710244
Min/max rho:1.010756 1.1766611
DILUPBiCGStab:  Solving for epsilon, Initial residual = 0.053717907, Final residual = 0.002250953, No Iterations 1
DILUPBiCGStab:  Solving for k, Initial residual = 0.12616995, Final residual = 0.0021385988, No Iterations 2
ExecutionTime = 1.31 s  ClockTime = 1 s

volFieldValue fluid write:
    volAverage(fluid) of T = 300.008

volFieldValue pcb write:
    volAverage(pcb) of T = 300.18437

volFieldValue component_0 write:
    volAverage(component_0) of T = 300.28102

volFieldValue component_1 write:
    volAverage(component_1) of T = 302.79813

volFieldValue component_2 write:
    volAverage(component_2) of T = 302.80966

volFieldValue component_3 write:
    volAverage(component_3) of T = 322.01061

volFieldValue component_4 write:
    volAverage(component_4) of T = 342.61702

Time = 12


Solving for fluid region fluid
DILUPBiCGStab:  Solving for Ux, Initial residual = 0.19580188, Final residual = 0.0044777358, No Iterations 2
DILUPBiCGStab:  Solving for Uy, Initial residual = 0.091718741, Final residual = 0.0022551673, No Iterations 2

Solving energy coupled regions
Using lduPrimitiveAssembly: lduAssembly456789
DILUPBiCGStab:  Solving for h, Initial residual = 0.0029126201, Final residual = 0.00012084659, No Iterations 1
limitTemperature=limitT, Type=Lower, LimitedCells=0, CellsPercent=0, Tmin=250, UnlimitedTmin=299.98418
limitTemperature=limitT, Type=Upper, LimitedCells=0, CellsPercent=0, Tmax=6000, UnlimitedTmax=302.06889
limitTemperature=limitT, Type=Lower, LimitedCells=0, CellsPercent=0, Tmin=250, UnlimitedTmin=299.99708
limitTemperature=limitT, Type=Upper, LimitedCells=0, CellsPercent=0, Tmax=6000, UnlimitedTmax=313.97138
limitTemperature=limitT, Type=Lower, LimitedCells=0, CellsPercent=0, Tmin=250, UnlimitedTmin=300.17649
limitTemperature=limitT, Type=Upper, LimitedCells=0, CellsPercent=0, Tmax=6000, UnlimitedTmax=300.31681
limitTemperature=limitT, Type=Lower, LimitedCells=0, CellsPercent=0, Tmin=250, UnlimitedTmin=301.76885
limitTemperature=limitT, Type=Upper, LimitedCells=0, CellsPercent=0, Tmax=6000, UnlimitedTmax=303.21697
limitTemperature=limitT, Type=Lower, LimitedCells=0, CellsPercent=0, Tmin=250, UnlimitedTmin=301.88628
limitTemperature=limitT, Type=Upper, LimitedCells=0, CellsPercent=0, Tmax=6000, UnlimitedTmax=303.16543
limitTemperature=limitT, Type=Lower, LimitedCells=0, CellsPercent=0, Tmin=250, UnlimitedTmin=315.09498
limitTemperature=limitT, Type=Upper, LimitedCells=0, CellsPercent=0, Tmax=6000, UnlimitedTmax=326.50547
limitTemperature=limitT, Type=Lower, LimitedCells=0, CellsPercent=0, Tmin=250, UnlimitedTmin=325.34448
limitTemperature=limitT, Type=Upper, LimitedCells=0, CellsPercent=0, Tmax=6000, UnlimitedTmax=354.77571
DICPBiCGStab:  Solving for p_rgh, Initial residual = 0.14611049, Final residual = 0.013510812, No Iterations 44
time step continuity errors : sum local = 0.065049574, global = -0.042001578, cumulative = 0.17510086
Min/max rho:1.0033537 1.1766615
DILUPBiCGStab:  Solving for epsilon, Initial residual = 0.04812002, Final residual = 0.0018240191, No Iterations 1
DILUPBiCGStab:  Solving for k, Initial residual = 0.11712707, Final residual = 0.0024708904, No Iterations 2
ExecutionTime = 1.41 s  ClockTime = 1 s

volFieldValue fluid write:
    volAverage(fluid) of T = 300.00952

volFieldValue pcb write:
    volAverage(pcb) of T = 300.20994

volFieldValue component_0 write:
    volAverage(component_0) of T = 300.3045

volFieldValue component_1 write:
    volAverage(component_1) of T = 303.02016

volFieldValue component_2 write:
    volAverage(component_2) of T = 303.03323

volFieldValue component_3 write:
    volAverage(component_3) of T = 323.02291

volFieldValue component_4 write:
    volAverage(component_4) of T = 344.45546

Time = 13


Solving for fluid region fluid
DILUPBiCGStab:  Solving for Ux, Initial residual = 0.18132996, Final residual = 0.0035137612, No Iterations 2
DILUPBiCGStab:  Solving for Uy, Initial residual = 0.10258159, Final residual = 0.0031190908, No Iterations 2

Solving energy coupled regions
Using lduPrimitiveAssembly: lduAssembly456789
DILUPBiCGStab:  Solving for h, Initial residual = 0.0028154757, Final residual = 9.65953e-05, No Iterations 1
limitTemperature=limitT, Type=Lower, LimitedCells=0, CellsPercent=0, Tmin=250, UnlimitedTmin=299.99033
limitTemperature=limitT, Type=Upper, LimitedCells=0, CellsPercent=0, Tmax=6000, UnlimitedTmax=303.57874
limitTemperature=limitT, Type=Lower, LimitedCells=0, CellsPercent=0, Tmin=250, UnlimitedTmin=299.99691
limitTemperature=limitT, Type=Upper, LimitedCells=0, CellsPercent=0, Tmax=6000, UnlimitedTmax=315.28867
limitTemperature=limitT, Type=Lower, LimitedCells=0, CellsPercent=0, Tmin=250, UnlimitedTmin=300.1894
limitTemperature=limitT, Type=Upper, LimitedCells=0, CellsPercent=0, Tmax=6000, UnlimitedTmax=300.34355
limitTemperature=limitT, Type=Lower, LimitedCells=0, CellsPercent=0, Tmin=250, UnlimitedTmin=301.80344
limitTemperature=limitT, Type=Upper, LimitedCells=0, CellsPercent=0, Tmax=6000, UnlimitedTmax=303.48401
limitTemperature=limitT, Type=Lower, LimitedCells=0, CellsPercent=0, Tmin=250, UnlimitedTmin=301.89912
limitTemperature=limitT, Type=Upper, LimitedCells=0, CellsPercent=0, Tmax=6000, UnlimitedTmax=303.42207
limitTemperature=limitT, Type=Lower, LimitedCells=0, CellsPercent=0, Tmin=250, UnlimitedTmin=316.04735
limitTemperature=limitT, Type=Upper, LimitedCells=0, CellsPercent=0, Tmax=6000, UnlimitedTmax=327.74754
limitTemperature=limitT, Type=Lower, LimitedCells=0, CellsPercent=0, Tmin=250, UnlimitedTmin=328.32718
limitTemperature=limitT, Type=Upper, LimitedCells=0, CellsPercent=0, Tmax=6000, UnlimitedTmax=357.6914
DICPBiCGStab:  Solving for p_rgh, Initial residual = 0.11695147, Final residual = 0.011657931, No Iterations 42
time step continuity errors : sum local = 0.064268151, global = -0.045847906, cumulative = 0.12925295
Min/max rho:0.99568778 1.1766626
DILUPBiCGStab:  Solving for epsilon, Initial residual = 0.042152175, Final residual = 0.0014773104, No Iterations 1
DILUPBiCGStab:  Solving for k, Initial residual = 0.10815289, Final residual = 0.005372263, No Iterations 1
ExecutionTime = 1.49 s  ClockTime = 1 s

volFieldValue fluid write:
    volAverage(fluid) of T = 300.01097

volFieldValue pcb write:
    volAverage(pcb) of T = 300.23869

volFieldValue component_0 write:
    volAverage(component_0) of T = 300.32802

volFieldValue component_1 write:
    volAverage(component_1) of T = 303.23867

volFieldValue component_2 write:
    volAverage(component_2) of T = 303.25403

volFieldValue component_3 write:
    volAverage(component_3) of T = 323.9512

volFieldValue component_4 write:
    volAverage(component_4) of T = 344.85056

Time = 14


Solving for fluid region fluid
DILUPBiCGStab:  Solving for Ux, Initial residual = 0.16538729, Final residual = 0.0031712706, No Iterations 2
DILUPBiCGStab:  Solving for Uy, Initial residual = 0.11553896, Final residual = 0.002429543, No Iterations 2

Solving energy coupled regions
Using lduPrimitiveAssembly: lduAssembly456789
DILUPBiCGStab:  Solving for h, Initial residual = 0.0028175305, Final residual = 9.9356161e-05, No Iterations 1
limitTemperature=limitT, Type=Lower, LimitedCells=0, CellsPercent=0, Tmin=250, UnlimitedTmin=299.99154
limitTemperature=limitT, Type=Upper, LimitedCells=0, CellsPercent=0, Tmax=6000, UnlimitedTmax=302.41692
limitTemperature=limitT, Type=Lower, LimitedCells=0, CellsPercent=0, Tmin=250, UnlimitedTmin=299.99726
limitTemperature=limitT, Type=Upper, LimitedCells=0, CellsPercent=0, Tmax=6000, UnlimitedTmax=316.51067
limitTemperature=limitT, Type=Lower, LimitedCells=0, CellsPercent=0, Tmin=250, UnlimitedTmin=300.20235
limitTemperature=limitT, Type=Upper, LimitedCells=0, CellsPercent=0, Tmax=6000, UnlimitedTmax=300.37033
limitTemperature=limitT, Type=Lower, LimitedCells=0, CellsPercent=0, Tmin=250, UnlimitedTmin=301.8725
limitTemperature=limitT, Type=Upper, LimitedCells=0, CellsPercent=0, Tmax=6000, UnlimitedTmax=303.75091
limitTemperature=limitT, Type=Lower, LimitedCells=0, CellsPercent=0, Tmin=250, UnlimitedTmin=301.94818
limitTemperature=limitT, Type=Upper, LimitedCells=0, CellsPercent=0, Tmax=6000, UnlimitedTmax=303.67645
limitTemperature=limitT, Type=Lower, LimitedCells=0, CellsPercent=0, Tmin=250, UnlimitedTmin=316.57952
limitTemperature=limitT, Type=Upper, LimitedCells=0, CellsPercent=0, Tmax=6000, UnlimitedTmax=328.91828
limitTemperature=limitT, Type=Lower, LimitedCells=0, CellsPercent=0, Tmin=250, UnlimitedTmin=329.27092
limitTemperature=limitT, Type=Upper, LimitedCells=0, CellsPercent=0, Tmax=6000, UnlimitedTmax=357.56182
DICPBiCGStab:  Solving for p_rgh, Initial residual = 0.13083098, Final residual = 0.013037978, No Iterations 61
time step continuity errors : sum local = 0.065971715, global = -0.018367513, cumulative = 0.11088544
Min/max rho:0.99214152 1.176663
DILUPBiCGStab:  Solving for epsilon, Initial residual = 0.036641874, Final residual = 0.0014500648, No Iterations 1
DILUPBiCGStab:  Solving for k, Initial residual = 0.095724189, Final residual = 0.0015456102, No Iterations 2
ExecutionTime = 1.59 s  ClockTime = 1 s

volFieldValue fluid write:
    volAverage(fluid) of T = 300.01232

volFieldValue pcb write:
    volAverage(pcb) of T = 300.26876

volFieldValue component_0 write:
    volAverage(component_0) of T = 300.35136

volFieldValue component_1 write:
    volAverage(component_1) of T = 303.45334

volFieldValue component_2 write:
    volAverage(component_2) of T = 303.4744

volFieldValue component_3 write:
    volAverage(component_3) of T = 324.75353

volFieldValue component_4 write:
    volAverage(component_4) of T = 343.85553

Time = 15


Solving for fluid region fluid
DILUPBiCGStab:  Solving for Ux, Initial residual = 0.14198221, Final residual = 0.0032068734, No Iterations 2
DILUPBiCGStab:  Solving for Uy, Initial residual = 0.15144037, Final residual = 0.0069572147, No Iterations 2

Solving energy coupled regions
Using lduPrimitiveAssembly: lduAssembly456789
DILUPBiCGStab:  Solving for h, Initial residual = 0.0027157197, Final residual = 9.0898382e-05, No Iterations 1
limitTemperature=limitT, Type=Lower, LimitedCells=0, CellsPercent=0, Tmin=250, UnlimitedTmin=299.99175
limitTemperature=limitT, Type=Upper, LimitedCells=0, CellsPercent=0, Tmax=6000, UnlimitedTmax=302.13098
limitTemperature=limitT, Type=Lower, LimitedCells=0, CellsPercent=0, Tmin=250, UnlimitedTmin=299.99803
limitTemperature=limitT, Type=Upper, LimitedCells=0, CellsPercent=0, Tmax=6000, UnlimitedTmax=317.52954
limitTemperature=limitT, Type=Lower, LimitedCells=0, CellsPercent=0, Tmin=250, UnlimitedTmin=300.21427
limitTemperature=limitT, Type=Upper, LimitedCells=0, CellsPercent=0, Tmax=6000, UnlimitedTmax=300.39708
limitTemperature=limitT, Type=Lower, LimitedCells=0, CellsPercent=0, Tmin=250, UnlimitedTmin=302.02047
limitTemperature=limitT, Type=Upper, LimitedCells=0, CellsPercent=0, Tmax=6000, UnlimitedTmax=304.01433
limitTemperature=limitT, Type=Lower, LimitedCells=0, CellsPercent=0, Tmin=250, UnlimitedTmin=302.09743
limitTemperature=limitT, Type=Upper, LimitedCells=0, CellsPercent=0, Tmax=6000, UnlimitedTmax=303.92557
limitTemperature=limitT, Type=Lower, LimitedCells=0, CellsPercent=0, Tmin=250, UnlimitedTmin=316.39776
limitTemperature=limitT, Type=Upper, LimitedCells=0, CellsPercent=0, Tmax=6000, UnlimitedTmax=329.91856
limitTemperature=limitT, Type=Lower, LimitedCells=0, CellsPercent=0, Tmin=250, UnlimitedTmin=328.43674
limitTemperature=limitT, Type=Upper, LimitedCells=0, CellsPercent=0, Tmax=6000, UnlimitedTmax=355.65316
DICPBiCGStab:  Solving for p_rgh, Initial residual = 0.68076271, Final residual = 0.065271297, No Iterations 68
time step continuity errors : sum local = 0.067406258, global = -0.0050362377, cumulative = 0.1058492
Min/max rho:0.99309506 1.1766623
DILUPBiCGStab:  Solving for epsilon, Initial residual = 0.030642881, Final residual = 0.0011323298, No Iterations 1
DILUPBiCGStab:  Solving for k, Initial residual = 0.083297149, Final residual = 0.0021718781, No Iterations 2
ExecutionTime = 1.69 s  ClockTime = 1 s

volFieldValue fluid write:
    volAverage(fluid) of T = 300.01368

volFieldValue pcb write:
    volAverage(pcb) of T = 300.29996

volFieldValue component_0 write:
    volAverage(component_0) of T = 300.37458

volFieldValue component_1 write:
    volAverage(component_1) of T = 303.66463

volFieldValue component_2 write:
    volAverage(component_2) of T = 303.68845

volFieldValue component_3 write:
    volAverage(component_3) of T = 325.40889

volFieldValue component_4 write:
    volAverage(component_4) of T = 342.61745

Time = 16


Solving for fluid region fluid
DILUPBiCGStab:  Solving for Ux, Initial residual = 0.1277185, Final residual = 0.0032005669, No Iterations 2
DILUPBiCGStab:  Solving for Uy, Initial residual = 0.12853019, Final residual = 0.0027015009, No Iterations 2

Solving energy coupled regions
Using lduPrimitiveAssembly: lduAssembly456789
DILUPBiCGStab:  Solving for h, Initial residual = 0.002791274, Final residual = 0.00012053476, No Iterations 1
limitTemperature=limitT, Type=Lower, LimitedCells=0, CellsPercent=0, Tmin=250, UnlimitedTmin=299.99199
limitTemperature=limitT, Type=Upper, LimitedCells=0, CellsPercent=0, Tmax=6000, UnlimitedTmax=302.33818
limitTemperature=limitT, Type=Lower, LimitedCells=0, CellsPercent=0, Tmin=250, UnlimitedTmin=299.99846
limitTemperature=limitT, Type=Upper, LimitedCells=0, CellsPercent=0, Tmax=6000, UnlimitedTmax=318.40521
limitTemperature=limitT, Type=Lower, LimitedCells=0, CellsPercent=0, Tmin=250, UnlimitedTmin=300.22707
limitTemperature=limitT, Type=Upper, LimitedCells=0, CellsPercent=0, Tmax=6000, UnlimitedTmax=300.42379
limitTemperature=limitT, Type=Lower, LimitedCells=0, CellsPercent=0, Tmin=250, UnlimitedTmin=302.22619
limitTemperature=limitT, Type=Upper, LimitedCells=0, CellsPercent=0, Tmax=6000, UnlimitedTmax=304.27622
limitTemperature=limitT, Type=Lower, LimitedCells=0, CellsPercent=0, Tmin=250, UnlimitedTmin=302.20353
limitTemperature=limitT, Type=Upper, LimitedCells=0, CellsPercent=0, Tmax=6000, UnlimitedTmax=304.17027
limitTemperature=limitT, Type=Lower, LimitedCells=0, CellsPercent=0, Tmin=250, UnlimitedTmin=315.51881
limitTemperature=limitT, Type=Upper, LimitedCells=0, CellsPercent=0, Tmax=6000, UnlimitedTmax=330.92517
limitTemperature=limitT, Type=Lower, LimitedCells=0, CellsPercent=0, Tmin=250, UnlimitedTmin=326.70121
limitTemperature=limitT, Type=Upper, LimitedCells=0, CellsPercent=0, Tmax=6000, UnlimitedTmax=354.03361
DICPBiCGStab:  Solving for p_rgh, Initial residual = 0.21858753, Final residual = 0.021207317, No Iterations 23
time step continuity errors : sum local = 0.074363091, global = -0.066176431, cumulative = 0.039672769
Min/max rho:0.99579427 1.1771003
DILUPBiCGStab:  Solving for epsilon, Initial residual = 0.026986183, Final residual = 0.0010481346, No Iterations 1
DILUPBiCGStab:  Solving for k, Initial residual = 0.076600492, Final residual = 0.0013395273, No Iterations 2
ExecutionTime = 1.73 s  ClockTime = 1 s

volFieldValue fluid write:
    volAverage(fluid) of T = 300.01487

volFieldValue pcb write:
    volAverage(pcb) of T = 300.32938

volFieldValue component_0 write:
    volAverage(component_0) of T = 300.39741

volFieldValue component_1 write:
    volAverage(component_1) of T = 303.8751

volFieldValue component_2 write:
    volAverage(component_2) of T = 303.89863

volFieldValue component_3 write:
    volAverage(component_3) of T = 325.74536

volFieldValue component_4 write:
    volAverage(component_4) of T = 342.28834

Time = 17


Solving for fluid region fluid
DILUPBiCGStab:  Solving for Ux, Initial residual = 0.11700437, Final residual = 0.0027233028, No Iterations 2
DILUPBiCGStab:  Solving for Uy, Initial residual = 0.096781709, Final residual = 0.00221813, No Iterations 2

Solving energy coupled regions
Using lduPrimitiveAssembly: lduAssembly456789
DILUPBiCGStab:  Solving for h, Initial residual = 0.0026707717, Final residual = 0.00010309142, No Iterations 1
limitTemperature=limitT, Type=Lower, LimitedCells=0, CellsPercent=0, Tmin=250, UnlimitedTmin=299.99227
limitTemperature=limitT, Type=Upper, LimitedCells=0, CellsPercent=0, Tmax=6000, UnlimitedTmax=302.32799
limitTemperature=limitT, Type=Lower, LimitedCells=0, CellsPercent=0, Tmin=250, UnlimitedTmin=299.9984
limitTemperature=limitT, Type=Upper, LimitedCells=0, CellsPercent=0, Tmax=6000, UnlimitedTmax=319.2649
limitTemperature=limitT, Type=Lower, LimitedCells=0, CellsPercent=0, Tmin=250, UnlimitedTmin=300.23979
limitTemperature=limitT, Type=Upper, LimitedCells=0, CellsPercent=0, Tmax=6000, UnlimitedTmax=300.45017
limitTemperature=limitT, Type=Lower, LimitedCells=0, CellsPercent=0, Tmin=250, UnlimitedTmin=302.35541
limitTemperature=limitT, Type=Upper, LimitedCells=0, CellsPercent=0, Tmax=6000, UnlimitedTmax=304.53302
limitTemperature=limitT, Type=Lower, LimitedCells=0, CellsPercent=0, Tmin=250, UnlimitedTmin=302.34317
limitTemperature=limitT, Type=Upper, LimitedCells=0, CellsPercent=0, Tmax=6000, UnlimitedTmax=304.41154
limitTemperature=limitT, Type=Lower, LimitedCells=0, CellsPercent=0, Tmin=250, UnlimitedTmin=314.80582
limitTemperature=limitT, Type=Upper, LimitedCells=0, CellsPercent=0, Tmax=6000, UnlimitedTmax=331.80018
limitTemperature=limitT, Type=Lower, LimitedCells=0, CellsPercent=0, Tmin=250, UnlimitedTmin=325.73049
limitTemperature=limitT, Type=Upper, LimitedCells=0, CellsPercent=0, Tmax=6000, UnlimitedTmax=354.70769
DICPBiCGStab:  Solving for p_rgh, Initial residual = 0.16530821, Final residual = 0.016326463, No Iterations 29
time step continuity errors : sum local = 0.082942368, global = -0.052644685, cumulative = -0.012971916
Min/max rho:0.99626258 1.1774052
DILUPBiCGStab:  Solving for epsilon, Initial residual = 0.025031133, Final residual = 0.0010129479, No Iterations 1
DILUPBiCGStab:  Solving for k, Initial residual = 0.069045381, Final residual = 0.0012596359, No Iterations 2
ExecutionTime = 1.82 s  ClockTime = 1 s

volFieldValue fluid write:
    volAverage(fluid) of T = 300.01608

volFieldValue pcb write:
    volAverage(pcb) of T = 300.35735

volFieldValue component_0 write:
    volAverage(component_0) of T = 300.42026

volFieldValue component_1 write:
    volAverage(component_1) of T = 304.08291

volFieldValue component_2 write:
    volAverage(component_2) of T = 304.10439

volFieldValue component_3 write:
    volAverage(component_3) of T = 325.94745

volFieldValue component_4 write:
    volAverage(component_4) of T = 342.57916

Time = 18


Solving for fluid region fluid
DILUPBiCGStab:  Solving for Ux, Initial residual = 0.10279277, Final residual = 0.0025341776, No Iterations 2
DILUPBiCGStab:  Solving for Uy, Initial residual = 0.080573422, Final residual = 0.0016890383, No Iterations 2

Solving energy coupled regions
Using lduPrimitiveAssembly: lduAssembly456789
DILUPBiCGStab:  Solving for h, Initial residual = 0.0026487613, Final residual = 9.9646421e-05, No Iterations 1
limitTemperature=limitT, Type=Lower, LimitedCells=0, CellsPercent=0, Tmin=250, UnlimitedTmin=299.99247
limitTemperature=limitT, Type=Upper, LimitedCells=0, CellsPercent=0, Tmax=6000, UnlimitedTmax=302.75799
limitTemperature=limitT, Type=Lower, LimitedCells=0, CellsPercent=0, Tmin=250, UnlimitedTmin=299.99857
limitTemperature=limitT, Type=Upper, LimitedCells=0, CellsPercent=0, Tmax=6000, UnlimitedTmax=320.09474
limitTemperature=limitT, Type=Lower, LimitedCells=0, CellsPercent=0, Tmin=250, UnlimitedTmin=300.24988
limitTemperature=limitT, Type=Upper, LimitedCells=0, CellsPercent=0, Tmax=6000, UnlimitedTmax=300.4764
limitTemperature=limitT, Type=Lower, LimitedCells=0, CellsPercent=0, Tmin=250, UnlimitedTmin=302.41389
limitTemperature=limitT, Type=Upper, LimitedCells=0, CellsPercent=0, Tmax=6000, UnlimitedTmax=304.78926
limitTemperature=limitT, Type=Lower, LimitedCells=0, CellsPercent=0, Tmin=250, UnlimitedTmin=302.44382
limitTemperature=limitT, Type=Upper, LimitedCells=0, CellsPercent=0, Tmax=6000, UnlimitedTmax=304.65224
limitTemperature=limitT, Type=Lower, LimitedCells=0, CellsPercent=0, Tmin=250, UnlimitedTmin=313.94865
limitTemperature=limitT, Type=Upper, LimitedCells=0, CellsPercent=0, Tmax=6000, UnlimitedTmax=332.54586
limitTemperature=limitT, Type=Lower, LimitedCells=0, CellsPercent=0, Tmin=250, UnlimitedTmin=326.73526
limitTemperature=limitT, Type=Upper, LimitedCells=0, CellsPercent=0, Tmax=6000, UnlimitedTmax=355.09838
DICPBiCGStab:  Solving for p_rgh, Initial residual = 0.16400965, Final residual = 0.015850483, No Iterations 34
time step continuity errors : sum local = 0.07395054, global = -0.037375641, cumulative = -0.050347557
Min/max rho:0.99602416 1.177562
DILUPBiCGStab:  Solving for epsilon, Initial residual = 0.025039858, Final residual = 0.001007317, No Iterations 1
bounding epsilon, min: -0.030365798 max: 10 average: 0.16727081
DILUPBiCGStab:  Solving for k, Initial residual = 0.068799049, Final residual = 0.001159876, No Iterations 2
ExecutionTime = 1.91 s  ClockTime = 2 s

volFieldValue fluid write:
    volAverage(fluid) of T = 300.01687

volFieldValue pcb write:
    volAverage(pcb) of T = 300.38434

volFieldValue component_0 write:
    volAverage(component_0) of T = 300.44293

volFieldValue component_1 write:
    volAverage(component_1) of T = 304.28441

volFieldValue component_2 write:
    volAverage(component_2) of T = 304.30443

volFieldValue component_3 write:
    volAverage(component_3) of T = 326.19162

volFieldValue component_4 write:
    volAverage(component_4) of T = 342.93021

Time = 19


Solving for fluid region fluid
DILUPBiCGStab:  Solving for Ux, Initial residual = 0.096783922, Final residual = 0.0021952732, No Iterations 2
DILUPBiCGStab:  Solving for Uy, Initial residual = 0.07951158, Final residual = 0.002311348, No Iterations 2

Solving energy coupled regions
Using lduPrimitiveAssembly: lduAssembly456789
DILUPBiCGStab:  Solving for h, Initial residual = 0.0028343656, Final residual = 0.00012640419, No Iterations 1
limitTemperature=limitT, Type=Lower, LimitedCells=0, CellsPercent=0, Tmin=250, UnlimitedTmin=299.99258
limitTemperature=limitT, Type=Upper, LimitedCells=0, CellsPercent=0, Tmax=6000, UnlimitedTmax=302.40102
limitTemperature=limitT, Type=Lower, LimitedCells=0, CellsPercent=0, Tmin=250, UnlimitedTmin=299.99902
limitTemperature=limitT, Type=Upper, LimitedCells=0, CellsPercent=0, Tmax=6000, UnlimitedTmax=320.86931
limitTemperature=limitT, Type=Lower, LimitedCells=0, CellsPercent=0, Tmin=250, UnlimitedTmin=300.25895
limitTemperature=limitT, Type=Upper, LimitedCells=0, CellsPercent=0, Tmax=6000, UnlimitedTmax=300.50239
limitTemperature=limitT, Type=Lower, LimitedCells=0, CellsPercent=0, Tmin=250, UnlimitedTmin=302.42555
limitTemperature=limitT, Type=Upper, LimitedCells=0, CellsPercent=0, Tmax=6000, UnlimitedTmax=305.04219
limitTemperature=limitT, Type=Lower, LimitedCells=0, CellsPercent=0, Tmin=250, UnlimitedTmin=302.51596
limitTemperature=limitT, Type=Upper, LimitedCells=0, CellsPercent=0, Tmax=6000, UnlimitedTmax=304.8909
limitTemperature=limitT, Type=Lower, LimitedCells=0, CellsPercent=0, Tmin=250, UnlimitedTmin=314.15764
limitTemperature=limitT, Type=Upper, LimitedCells=0, CellsPercent=0, Tmax=6000, UnlimitedTmax=333.27847
limitTemperature=limitT, Type=Lower, LimitedCells=0, CellsPercent=0, Tmin=250, UnlimitedTmin=325.85606
limitTemperature=limitT, Type=Upper, LimitedCells=0, CellsPercent=0, Tmax=6000, UnlimitedTmax=355.4196
DICPBiCGStab:  Solving for p_rgh, Initial residual = 0.15110624, Final residual = 0.0083100019, No Iterations 48
time step continuity errors : sum local = 0.036284841, global = 0.0019936172, cumulative = -0.04835394
Min/max rho:0.99556927 1.1776247
DILUPBiCGStab:  Solving for epsilon, Initial residual = 0.025151362, Final residual = 0.0011538368, No Iterations 1
bounding epsilon, min: -0.086494626 max: 10 average: 0.16272785
DILUPBiCGStab:  Solving for k, Initial residual = 0.067011903, Final residual = 0.00099720925, No Iterations 2
bounding k, min: -0.0056911012 max: 0.8242457 average: 0.061488296
ExecutionTime = 2.02 s  ClockTime = 2 s

volFieldValue fluid write:
    volAverage(fluid) of T = 300.0179

volFieldValue pcb write:
    volAverage(pcb) of T = 300.41245

volFieldValue component_0 write:
    volAverage(component_0) of T = 300.46514

volFieldValue component_1 write:
    volAverage(component_1) of T = 304.47926

volFieldValue component_2 write:
    volAverage(component_2) of T = 304.49562

volFieldValue component_3 write:
    volAverage(component_3) of T = 326.60512

volFieldValue component_4 write:
    volAverage(component_4) of T = 343.7457

Time = 20


Solving for fluid region fluid
DILUPBiCGStab:  Solving for Ux, Initial residual = 0.10039363, Final residual = 0.0022418172, No Iterations 2
DILUPBiCGStab:  Solving for Uy, Initial residual = 0.08582551, Final residual = 0.0024010817, No Iterations 2

Solving energy coupled regions
Using lduPrimitiveAssembly: lduAssembly456789
DILUPBiCGStab:  Solving for h, Initial residual = 0.0028380805, Final residual = 0.00012976027, No Iterations 1
limitTemperature=limitT, Type=Lower, LimitedCells=0, CellsPercent=0, Tmin=250, UnlimitedTmin=299.99233
limitTemperature=limitT, Type=Upper, LimitedCells=0, CellsPercent=0, Tmax=6000, UnlimitedTmax=302.53607
limitTemperature=limitT, Type=Lower, LimitedCells=0, CellsPercent=0, Tmin=250, UnlimitedTmin=299.99959
limitTemperature=limitT, Type=Upper, LimitedCells=0, CellsPercent=0, Tmax=6000, UnlimitedTmax=321.59884
limitTemperature=limitT, Type=Lower, LimitedCells=0, CellsPercent=0, Tmin=250, UnlimitedTmin=300.26874
limitTemperature=limitT, Type=Upper, LimitedCells=0, CellsPercent=0, Tmax=6000, UnlimitedTmax=300.52797
limitTemperature=limitT, Type=Lower, LimitedCells=0, CellsPercent=0, Tmin=250, UnlimitedTmin=302.46871
limitTemperature=limitT, Type=Upper, LimitedCells=0, CellsPercent=0, Tmax=6000, UnlimitedTmax=305.28985
limitTemperature=limitT, Type=Lower, LimitedCells=0, CellsPercent=0, Tmin=250, UnlimitedTmin=302.60426
limitTemperature=limitT, Type=Upper, LimitedCells=0, CellsPercent=0, Tmax=6000, UnlimitedTmax=305.12613
limitTemperature=limitT, Type=Lower, LimitedCells=0, CellsPercent=0, Tmin=250, UnlimitedTmin=313.16481
limitTemperature=limitT, Type=Upper, LimitedCells=0, CellsPercent=0, Tmax=6000, UnlimitedTmax=334.16854
limitTemperature=limitT, Type=Lower, LimitedCells=0, CellsPercent=0, Tmin=250, UnlimitedTmin=325.30816
limitTemperature=limitT, Type=Upper, LimitedCells=0, CellsPercent=0, Tmax=6000, UnlimitedTmax=355.93638
DICPBiCGStab:  Solving for p_rgh, Initial residual = 0.16521119, Final residual = 0.016243356, No Iterations 50
time step continuity errors : sum local = 0.059600373, global = 0.015860338, cumulative = -0.032493602
Min/max rho:0.9946146 1.1776
DILUPBiCGStab:  Solving for epsilon, Initial residual = 0.024277961, Final residual = 0.00096241164, No Iterations 1
bounding epsilon, min: -0.11365456 max: 10 average: 0.1587928
DILUPBiCGStab:  Solving for k, Initial residual = 0.063969786, Final residual = 0.00094454143, No Iterations 2
bounding k, min: -0.02788389 max: 1.0201264 average: 0.060386158
ExecutionTime = 2.1 s  ClockTime = 2 s

volFieldValue fluid write:
    volAverage(fluid) of T = 300.01969

volFieldValue pcb write:
    volAverage(pcb) of T = 300.44407

volFieldValue component_0 write:
    volAverage(component_0) of T = 300.48718

volFieldValue component_1 write:
    volAverage(component_1) of T = 304.67157

volFieldValue component_2 write:
    volAverage(component_2) of T = 304.68165

volFieldValue component_3 write:
    volAverage(component_3) of T = 327.09259

volFieldValue component_4 write:
    volAverage(component_4) of T = 345.96755

Time = 21


Solving for fluid region fluid
DILUPBiCGStab:  Solving for Ux, Initial residual = 0.11410035, Final residual = 0.0023604634, No Iterations 2
DILUPBiCGStab:  Solving for Uy, Initial residual = 0.12431304, Final residual = 0.0026759543, No Iterations 2

Solving energy coupled regions
Using lduPrimitiveAssembly: lduAssembly456789
DILUPBiCGStab:  Solving for h, Initial residual = 0.0029905294, Final residual = 2.17596e-05, No Iterations 2
limitTemperature=limitT, Type=Lower, LimitedCells=0, CellsPercent=0, Tmin=250, UnlimitedTmin=299.99188
limitTemperature=limitT, Type=Upper, LimitedCells=0, CellsPercent=0, Tmax=6000, UnlimitedTmax=303.16525
limitTemperature=limitT, Type=Lower, LimitedCells=0, CellsPercent=0, Tmin=250, UnlimitedTmin=299.99985
limitTemperature=limitT, Type=Upper, LimitedCells=0, CellsPercent=0, Tmax=6000, UnlimitedTmax=322.40588
limitTemperature=limitT, Type=Lower, LimitedCells=0, CellsPercent=0, Tmin=250, UnlimitedTmin=300.27699
limitTemperature=limitT, Type=Upper, LimitedCells=0, CellsPercent=0, Tmax=6000, UnlimitedTmax=300.55349
limitTemperature=limitT, Type=Lower, LimitedCells=0, CellsPercent=0, Tmin=250, UnlimitedTmin=302.56372
limitTemperature=limitT, Type=Upper, LimitedCells=0, CellsPercent=0, Tmax=6000, UnlimitedTmax=305.53555
limitTemperature=limitT, Type=Lower, LimitedCells=0, CellsPercent=0, Tmin=250, UnlimitedTmin=302.68614
limitTemperature=limitT, Type=Upper, LimitedCells=0, CellsPercent=0, Tmax=6000, UnlimitedTmax=305.36051
limitTemperature=limitT, Type=Lower, LimitedCells=0, CellsPercent=0, Tmin=250, UnlimitedTmin=313.38557
limitTemperature=limitT, Type=Upper, LimitedCells=0, CellsPercent=0, Tmax=6000, UnlimitedTmax=335.06255
limitTemperature=limitT, Type=Lower, LimitedCells=0, CellsPercent=0, Tmin=250, UnlimitedTmin=327.05649
limitTemperature=limitT, Type=Upper, LimitedCells=0, CellsPercent=0, Tmax=6000, UnlimitedTmax=358.40863
DICPBiCGStab:  Solving for p_rgh, Initial residual = 0.18632851, Final residual = 0.018615047, No Iterations 12
time step continuity errors : sum local = 0.062857412, global = 0.026459828, cumulative = -0.0060337738
Min/max rho:0.99077778 1.1774945
DILUPBiCGStab:  Solving for epsilon, Initial residual = 0.022302901, Final residual = 0.00096105065, No Iterations 1
bounding epsilon, min: -0.019226782 max: 10 average: 0.15571016
DILUPBiCGStab:  Solving for k, Initial residual = 0.059708207, Final residual = 0.0009216789, No Iterations 2
bounding k, min: -0.0033983433 max: 1.1271216 average: 0.059975475
ExecutionTime = 2.13 s  ClockTime = 2 s

volFieldValue fluid write:
    volAverage(fluid) of T = 300.02122

volFieldValue pcb write:
    volAverage(pcb) of T = 300.47618

volFieldValue component_0 write:
    volAverage(component_0) of T = 300.50991

volFieldValue component_1 write:
    volAverage(component_1) of T = 304.87032

volFieldValue component_2 write:
    volAverage(component_2) of T = 304.87387

volFieldValue component_3 write:
    volAverage(component_3) of T = 327.74242

volFieldValue component_4 write:
    volAverage(component_4) of T = 348.63558

Time = 22


Solving for fluid region fluid
DILUPBiCGStab:  Solving for Ux, Initial residual = 0.10869611, Final residual = 0.0023075444, No Iterations 2
DILUPBiCGStab:  Solving for Uy, Initial residual = 0.1233251, Final residual = 0.0026949637, No Iterations 2

Solving energy coupled regions
Using lduPrimitiveAssembly: lduAssembly456789
DILUPBiCGStab:  Solving for h, Initial residual = 0.002851843, Final residual = 0.00012532988, No Iterations 1
limitTemperature=limitT, Type=Lower, LimitedCells=0, CellsPercent=0, Tmin=250, UnlimitedTmin=299.99157
limitTemperature=limitT, Type=Upper, LimitedCells=0, CellsPercent=0, Tmax=6000, UnlimitedTmax=302.04872
limitTemperature=limitT, Type=Lower, LimitedCells=0, CellsPercent=0, Tmin=250, UnlimitedTmin=299.99998
limitTemperature=limitT, Type=Upper, LimitedCells=0, CellsPercent=0, Tmax=6000, UnlimitedTmax=323.26002
limitTemperature=limitT, Type=Lower, LimitedCells=0, CellsPercent=0, Tmin=250, UnlimitedTmin=300.28569
limitTemperature=limitT, Type=Upper, LimitedCells=0, CellsPercent=0, Tmax=6000, UnlimitedTmax=300.57929
limitTemperature=limitT, Type=Lower, LimitedCells=0, CellsPercent=0, Tmin=250, UnlimitedTmin=302.71359
limitTemperature=limitT, Type=Upper, LimitedCells=0, CellsPercent=0, Tmax=6000, UnlimitedTmax=305.78453
limitTemperature=limitT, Type=Lower, LimitedCells=0, CellsPercent=0, Tmin=250, UnlimitedTmin=302.80129
limitTemperature=limitT, Type=Upper, LimitedCells=0, CellsPercent=0, Tmax=6000, UnlimitedTmax=305.60176
limitTemperature=limitT, Type=Lower, LimitedCells=0, CellsPercent=0, Tmin=250, UnlimitedTmin=314.83737
limitTemperature=limitT, Type=Upper, LimitedCells=0, CellsPercent=0, Tmax=6000, UnlimitedTmax=335.9743
limitTemperature=limitT, Type=Lower, LimitedCells=0, CellsPercent=0, Tmin=250, UnlimitedTmin=331.62367
limitTemperature=limitT, Type=Upper, LimitedCells=0, CellsPercent=0, Tmax=6000, UnlimitedTmax=360.80886
DICPBiCGStab:  Solving for p_rgh, Initial residual = 0.20527905, Final residual = 0.019510143, No Iterations 17
time step continuity errors : sum local = 0.064037448, global = 0.049002039, cumulative = 0.042968265
Min/max rho:0.98560016 1.1775714
DILUPBiCGStab:  Solving for epsilon, Initial residual = 0.022394034, Final residual = 0.0010535703, No Iterations 1
bounding epsilon, min: -0.030421866 max: 10 average: 0.15541354
DILUPBiCGStab:  Solving for k, Initial residual = 0.061427473, Final residual = 0.0010177886, No Iterations 2
bounding k, min: -0.0016356414 max: 1.1809053 average: 0.060448287
ExecutionTime = 2.21 s  ClockTime = 2 s

volFieldValue fluid write:
    volAverage(fluid) of T = 300.02291

volFieldValue pcb write:
    volAverage(pcb) of T = 300.50839

volFieldValue component_0 write:
    volAverage(component_0) of T = 300.53158

volFieldValue component_1 write:
    volAverage(component_1) of T = 305.06485

volFieldValue component_2 write:
    volAverage(component_2) of T = 305.05598

volFieldValue component_3 write:
    volAverage(component_3) of T = 328.40512

volFieldValue component_4 write:
    volAverage(component_4) of T = 351.44015

Time = 23


Solving for fluid region fluid
DILUPBiCGStab:  Solving for Ux, Initial residual = 0.098092173, Final residual = 0.0023523152, No Iterations 2
DILUPBiCGStab:  Solving for Uy, Initial residual = 0.12160028, Final residual = 0.0017437534, No Iterations 2

Solving energy coupled regions
Using lduPrimitiveAssembly: lduAssembly456789
DILUPBiCGStab:  Solving for h, Initial residual = 0.0031589864, Final residual = 2.886073e-05, No Iterations 2
limitTemperature=limitT, Type=Lower, LimitedCells=0, CellsPercent=0, Tmin=250, UnlimitedTmin=299.99126
limitTemperature=limitT, Type=Upper, LimitedCells=0, CellsPercent=0, Tmax=6000, UnlimitedTmax=303.33999
limitTemperature=limitT, Type=Lower, LimitedCells=0, CellsPercent=0, Tmin=250, UnlimitedTmin=300.00018
limitTemperature=limitT, Type=Upper, LimitedCells=0, CellsPercent=0, Tmax=6000, UnlimitedTmax=324.11951
limitTemperature=limitT, Type=Lower, LimitedCells=0, CellsPercent=0, Tmin=250, UnlimitedTmin=300.29731
limitTemperature=limitT, Type=Upper, LimitedCells=0, CellsPercent=0, Tmax=6000, UnlimitedTmax=300.60457
limitTemperature=limitT, Type=Lower, LimitedCells=0, CellsPercent=0, Tmin=250, UnlimitedTmin=302.86344
limitTemperature=limitT, Type=Upper, LimitedCells=0, CellsPercent=0, Tmax=6000, UnlimitedTmax=306.02892
limitTemperature=limitT, Type=Lower, LimitedCells=0, CellsPercent=0, Tmin=250, UnlimitedTmin=302.85436
limitTemperature=limitT, Type=Upper, LimitedCells=0, CellsPercent=0, Tmax=6000, UnlimitedTmax=305.83463
limitTemperature=limitT, Type=Lower, LimitedCells=0, CellsPercent=0, Tmin=250, UnlimitedTmin=316.47934
limitTemperature=limitT, Type=Upper, LimitedCells=0, CellsPercent=0, Tmax=6000, UnlimitedTmax=336.83985
limitTemperature=limitT, Type=Lower, LimitedCells=0, CellsPercent=0, Tmin=250, UnlimitedTmin=336.98459
limitTemperature=limitT, Type=Upper, LimitedCells=0, CellsPercent=0, Tmax=6000, UnlimitedTmax=362.75083
DICPBiCGStab:  Solving for p_rgh, Initial residual = 0.21810133, Final residual = 0.019913825, No Iterations 72
time step continuity errors : sum local = 0.059670532, global = 0.031014938, cumulative = 0.073983203
Min/max rho:0.98040372 1.1776079
DILUPBiCGStab:  Solving for epsilon, Initial residual = 0.019666036, Final residual = 0.00090508075, No Iterations 1
bounding epsilon, min: -0.0018274017 max: 10 average: 0.15515412
DILUPBiCGStab:  Solving for k, Initial residual = 0.055006404, Final residual = 0.00078952435, No Iterations 2
ExecutionTime = 2.31 s  ClockTime = 2 s

volFieldValue fluid write:
    volAverage(fluid) of T = 300.02469

volFieldValue pcb write:
    volAverage(pcb) of T = 300.54156

volFieldValue component_0 write:
    volAverage(component_0) of T = 300.55384

volFieldValue component_1 write:
    volAverage(component_1) of T = 305.26053

volFieldValue component_2 write:
    volAverage(component_2) of T = 305.24386

volFieldValue component_3 write:
    volAverage(component_3) of T = 329.15895

volFieldValue component_4 write:
    volAverage(component_4) of T = 353.13924

Time = 24


Solving for fluid region fluid
DILUPBiCGStab:  Solving for Ux, Initial residual = 0.046628849, Final residual = 0.0010884599, No Iterations 2
DILUPBiCGStab:  Solving for Uy, Initial residual = 0.08962831, Final residual = 0.0040405725, No Iterations 2

Solving energy coupled regions
Using lduPrimitiveAssembly: lduAssembly456789
DILUPBiCGStab:  Solving for h, Initial residual = 0.0027384605, Final residual = 2.1452259e-05, No Iterations 2
limitTemperature=limitT, Type=Lower, LimitedCells=0, CellsPercent=0, Tmin=250, UnlimitedTmin=299.99102
limitTemperature=limitT, Type=Upper, LimitedCells=0, CellsPercent=0, Tmax=6000, UnlimitedTmax=302.10564
limitTemperature=limitT, Type=Lower, LimitedCells=0, CellsPercent=0, Tmin=250, UnlimitedTmin=299.99995
limitTemperature=limitT, Type=Upper, LimitedCells=0, CellsPercent=0, Tmax=6000, UnlimitedTmax=324.96111
limitTemperature=limitT, Type=Lower, LimitedCells=0, CellsPercent=0, Tmin=250, UnlimitedTmin=300.3062
limitTemperature=limitT, Type=Upper, LimitedCells=0, CellsPercent=0, Tmax=6000, UnlimitedTmax=300.63013
limitTemperature=limitT, Type=Lower, LimitedCells=0, CellsPercent=0, Tmin=250, UnlimitedTmin=302.96166
limitTemperature=limitT, Type=Upper, LimitedCells=0, CellsPercent=0, Tmax=6000, UnlimitedTmax=306.27563
limitTemperature=limitT, Type=Lower, LimitedCells=0, CellsPercent=0, Tmin=250, UnlimitedTmin=302.88189
limitTemperature=limitT, Type=Upper, LimitedCells=0, CellsPercent=0, Tmax=6000, UnlimitedTmax=306.07057
limitTemperature=limitT, Type=Lower, LimitedCells=0, CellsPercent=0, Tmin=250, UnlimitedTmin=317.45708
limitTemperature=limitT, Type=Upper, LimitedCells=0, CellsPercent=0, Tmax=6000, UnlimitedTmax=337.55261
limitTemperature=limitT, Type=Lower, LimitedCells=0, CellsPercent=0, Tmin=250, UnlimitedTmin=339.31937
limitTemperature=limitT, Type=Upper, LimitedCells=0, CellsPercent=0, Tmax=6000, UnlimitedTmax=364.05472
DICPBiCGStab:  Solving for p_rgh, Initial residual = 0.31453878, Final residual = 0.031018835, No Iterations 41
time step continuity errors : sum local = 0.054964451, global = 0.052817744, cumulative = 0.12680095
Min/max rho:0.9758665 1.1773092
DILUPBiCGStab:  Solving for epsilon, Initial residual = 0.017851229, Final residual = 0.00083202099, No Iterations 1
DILUPBiCGStab:  Solving for k, Initial residual = 0.050682108, Final residual = 9.1609259e-05, No Iterations 3
ExecutionTime = 2.4 s  ClockTime = 2 s

volFieldValue fluid write:
    volAverage(fluid) of T = 300.02629

volFieldValue pcb write:
    volAverage(pcb) of T = 300.57727

volFieldValue component_0 write:
    volAverage(component_0) of T = 300.57584

volFieldValue component_1 write:
    volAverage(component_1) of T = 305.44592

volFieldValue component_2 write:
    volAverage(component_2) of T = 305.42774

volFieldValue component_3 write:
    volAverage(component_3) of T = 329.58997

volFieldValue component_4 write:
    volAverage(component_4) of T = 352.77739

Time = 25


Solving for fluid region fluid
DILUPBiCGStab:  Solving for Ux, Initial residual = 0.047924163, Final residual = 0.0011693812, No Iterations 2
DILUPBiCGStab:  Solving for Uy, Initial residual = 0.087728623, Final residual = 0.0013562047, No Iterations 2

Solving energy coupled regions
Using lduPrimitiveAssembly: lduAssembly456789
[...]
    volAverage(component_4) of T = 515.83135

Time = 166


Solving for fluid region fluid
DILUPBiCGStab:  Solving for Ux, Initial residual = 0.25548229, Final residual = 0.0077310245, No Iterations 3
DILUPBiCGStab:  Solving for Uy, Initial residual = 0.34503236, Final residual = 0.0097220278, No Iterations 4

Solving energy coupled regions
Using lduPrimitiveAssembly: lduAssembly456789
DILUPBiCGStab:  Solving for h, Initial residual = 0.99999696, Final residual = 0.030051819, No Iterations 8
limitTemperature=limitT, Type=Lower, LimitedCells=1417, CellsPercent=17.02, Tmin=250, UnlimitedTmin=250
limitTemperature=limitT, Type=Upper, LimitedCells=1116, CellsPercent=13.4, Tmax=6000, UnlimitedTmax=6000
limitTemperature=limitT, Type=Lower, LimitedCells=26, CellsPercent=3.99, Tmin=250, UnlimitedTmin=250
limitTemperature=limitT, Type=Upper, LimitedCells=0, CellsPercent=0, Tmax=6000, UnlimitedTmax=1081.5516
limitTemperature=limitT, Type=Lower, LimitedCells=0, CellsPercent=0, Tmin=250, UnlimitedTmin=299.90001
limitTemperature=limitT, Type=Upper, LimitedCells=0, CellsPercent=0, Tmax=6000, UnlimitedTmax=302.80467
limitTemperature=limitT, Type=Lower, LimitedCells=185, CellsPercent=68.01, Tmin=250, UnlimitedTmin=250
limitTemperature=limitT, Type=Upper, LimitedCells=22, CellsPercent=8.09, Tmax=6000, UnlimitedTmax=6000
limitTemperature=limitT, Type=Lower, LimitedCells=0, CellsPercent=0, Tmin=250, UnlimitedTmin=250
limitTemperature=limitT, Type=Upper, LimitedCells=24, CellsPercent=11.76, Tmax=6000, UnlimitedTmax=6000
limitTemperature=limitT, Type=Lower, LimitedCells=0, CellsPercent=0, Tmin=250, UnlimitedTmin=288.66143
limitTemperature=limitT, Type=Upper, LimitedCells=0, CellsPercent=0, Tmax=6000, UnlimitedTmax=428.29381
limitTemperature=limitT, Type=Lower, LimitedCells=0, CellsPercent=0, Tmin=250, UnlimitedTmin=428.7938
limitTemperature=limitT, Type=Upper, LimitedCells=5, CellsPercent=41.67, Tmax=6000, UnlimitedTmax=639.09381
DICPBiCGStab:  Solving for p_rgh, Initial residual = 0.82683503, Final residual = 0.067774636, No Iterations 3
time step continuity errors : sum local = 19057.008, global = 14.242019, cumulative = -3.0062478
Min/max rho:0.0016799504 558.92717
DILUPBiCGStab:  Solving for epsilon, Initial residual = 0.13219481, Final residual = 0.0052007419, No Iterations 1
bounding epsilon, min: -10850.684 max: 3133815 average: 2008.4644
DILUPBiCGStab:  Solving for k, Initial residual = 1.0756166e-09, Final residual = 1.0756166e-09, No Iterations 0
ExecutionTime = 12.51 s  ClockTime = 12 s

volFieldValue fluid write:
    volAverage(fluid) of T = 1218.9954

volFieldValue pcb write:
    volAverage(pcb) of T = 333.99549

volFieldValue component_0 write:
    volAverage(component_0) of T = 302.19712

volFieldValue component_1 write:
    volAverage(component_1) of T = 970.70741

volFieldValue component_2 write:
    volAverage(component_2) of T = 1436.7139

volFieldValue component_3 write:
    volAverage(component_3) of T = 711.05425

volFieldValue component_4 write:
    volAverage(component_4) of T = 3678.6856

Time = 167


Solving for fluid region fluid
DILUPBiCGStab:  Solving for Ux, Initial residual = 0.5942974, Final residual = 0.021976252, No Iterations 2
DILUPBiCGStab:  Solving for Uy, Initial residual = 0.56441735, Final residual = 0.010869171, No Iterations 3

Solving energy coupled regions
Using lduPrimitiveAssembly: lduAssembly456789
DILUPBiCGStab:  Solving for h, Initial residual = 1, Final residual = 0.020833279, No Iterations 7
limitTemperature=limitT, Type=Lower, LimitedCells=1216, CellsPercent=14.6, Tmin=250, UnlimitedTmin=250
limitTemperature=limitT, Type=Upper, LimitedCells=2077, CellsPercent=24.94, Tmax=6000, UnlimitedTmax=6000
limitTemperature=limitT, Type=Lower, LimitedCells=5, CellsPercent=0.77, Tmin=250, UnlimitedTmin=250
limitTemperature=limitT, Type=Upper, LimitedCells=59, CellsPercent=9.05, Tmax=6000, UnlimitedTmax=1653.2351
limitTemperature=limitT, Type=Lower, LimitedCells=0, CellsPercent=0, Tmin=250, UnlimitedTmin=299.46562
limitTemperature=limitT, Type=Upper, LimitedCells=0, CellsPercent=0, Tmax=6000, UnlimitedTmax=305.79832
limitTemperature=limitT, Type=Lower, LimitedCells=114, CellsPercent=41.91, Tmin=250, UnlimitedTmin=250
limitTemperature=limitT, Type=Upper, LimitedCells=17, CellsPercent=6.25, Tmax=6000, UnlimitedTmax=6000
limitTemperature=limitT, Type=Lower, LimitedCells=0, CellsPercent=0, Tmin=250, UnlimitedTmin=354.89538
limitTemperature=limitT, Type=Upper, LimitedCells=30, CellsPercent=14.71, Tmax=6000, UnlimitedTmax=6000
limitTemperature=limitT, Type=Lower, LimitedCells=1, CellsPercent=3.13, Tmin=250, UnlimitedTmin=290.28791
limitTemperature=limitT, Type=Upper, LimitedCells=0, CellsPercent=0, Tmax=6000, UnlimitedTmax=1462.4507
limitTemperature=limitT, Type=Lower, LimitedCells=0, CellsPercent=0, Tmin=250, UnlimitedTmin=1073.2039
limitTemperature=limitT, Type=Upper, LimitedCells=12, CellsPercent=100, Tmax=6000, UnlimitedTmax=6000
DICPBiCGStab:  Solving for p_rgh, Initial residual = 0.96159998, Final residual = 0.071639651, No Iterations 3
time step continuity errors : sum local = 2916837.9, global = -156997.25, cumulative = -157000.26
Min/max rho:0.0099524822 5178.3376
DILUPBiCGStab:  Solving for epsilon, Initial residual = 0.35653103, Final residual = 0.015504853, No Iterations 1
bounding epsilon, min: -66750.832 max: 2116767.2 average: 2312.9865
DILUPBiCGStab:  Solving for k, Initial residual = 2.349563e-07, Final residual = 2.349563e-07, No Iterations 0
ExecutionTime = 12.54 s  ClockTime = 12 s

volFieldValue fluid write:
    volAverage(fluid) of T = 1894.2624

volFieldValue pcb write:
    volAverage(pcb) of T = 812.69635

volFieldValue component_0 write:
    volAverage(component_0) of T = 302.21465

volFieldValue component_1 write:
    volAverage(component_1) of T = 1163.3345

volFieldValue component_2 write:
    volAverage(component_2) of T = 1926.6526

volFieldValue component_3 write:
    volAverage(component_3) of T = 970.41033

volFieldValue component_4 write:
    volAverage(component_4) of T = 6000

Time = 168


Solving for fluid region fluid
DILUPBiCGStab:  Solving for Ux, Initial residual = 0.45321698, Final residual = 0.022431493, No Iterations 1
DILUPBiCGStab:  Solving for Uy, Initial residual = 0.6635775, Final residual = 0.028242877, No Iterations 1

Solving energy coupled regions
Using lduPrimitiveAssembly: lduAssembly456789
DILUPBiCGStab:  Solving for h, Initial residual = 1, Final residual = 0.035225977, No Iterations 12
limitTemperature=limitT, Type=Lower, LimitedCells=4718, CellsPercent=56.66, Tmin=250, UnlimitedTmin=250
limitTemperature=limitT, Type=Upper, LimitedCells=619, CellsPercent=7.43, Tmax=6000, UnlimitedTmax=6000
limitTemperature=limitT, Type=Lower, LimitedCells=425, CellsPercent=65.18, Tmin=250, UnlimitedTmin=250
limitTemperature=limitT, Type=Upper, LimitedCells=51, CellsPercent=7.82, Tmax=6000, UnlimitedTmax=6000
limitTemperature=limitT, Type=Lower, LimitedCells=102, CellsPercent=11.99, Tmin=250, UnlimitedTmin=289.65557
limitTemperature=limitT, Type=Upper, LimitedCells=0, CellsPercent=0, Tmax=6000, UnlimitedTmax=311.47943
limitTemperature=limitT, Type=Lower, LimitedCells=272, CellsPercent=100, Tmin=250, UnlimitedTmin=250
limitTemperature=limitT, Type=Upper, LimitedCells=0, CellsPercent=0, Tmax=6000, UnlimitedTmax=6000
limitTemperature=limitT, Type=Lower, LimitedCells=156, CellsPercent=76.47, Tmin=250, UnlimitedTmin=366.83122
limitTemperature=limitT, Type=Upper, LimitedCells=0, CellsPercent=0, Tmax=6000, UnlimitedTmax=6000
limitTemperature=limitT, Type=Lower, LimitedCells=32, CellsPercent=100, Tmin=250, UnlimitedTmin=250
limitTemperature=limitT, Type=Upper, LimitedCells=0, CellsPercent=0, Tmax=6000, UnlimitedTmax=1905.331
limitTemperature=limitT, Type=Lower, LimitedCells=0, CellsPercent=0, Tmin=250, UnlimitedTmin=6000
limitTemperature=limitT, Type=Upper, LimitedCells=12, CellsPercent=100, Tmax=6000, UnlimitedTmax=6000
DICPBiCGStab:  Solving for p_rgh, Initial residual = 0.96005879, Final residual = 0.08322788, No Iterations 3
time step continuity errors : sum local = 7.5567206e+08, global = -61689804, cumulative = -61846804
Min/max rho:0.0049762411 40241006
DILUPBiCGStab:  Solving for epsilon, Initial residual = 0.99259699, Final residual = 2.5759767e-06, No Iterations 1
bounding epsilon, min: -201381.21 max: 2.4479052e+08 average: 146759.6
DILUPBiCGStab:  Solving for k, Initial residual = 0.13527613, Final residual = 0.0047180157, No Iterations 1
ExecutionTime = 12.61 s  ClockTime = 12 s

volFieldValue fluid write:
    volAverage(fluid) of T = 782.85295

volFieldValue pcb write:
    volAverage(pcb) of T = 701.88894

volFieldValue component_0 write:
    volAverage(component_0) of T = 293.97972

volFieldValue component_1 write:
    volAverage(component_1) of T = 250

volFieldValue component_2 write:
    volAverage(component_2) of T = 336.21684

volFieldValue component_3 write:
    volAverage(component_3) of T = 250

volFieldValue component_4 write:
    volAverage(component_4) of T = 6000

Time = 169


Solving for fluid region fluid
DILUPBiCGStab:  Solving for Ux, Initial residual = 0.53264363, Final residual = 0.022113559, No Iterations 1
DILUPBiCGStab:  Solving for Uy, Initial residual = 0.56576045, Final residual = 0.027963025, No Iterations 1

Solving energy coupled regions
Using lduPrimitiveAssembly: lduAssembly456789
DILUPBiCGStab:  Solving for h, Initial residual = 1, Final residual = 0.049182317, No Iterations 19
limitTemperature=limitT, Type=Lower, LimitedCells=3033, CellsPercent=36.42, Tmin=250, UnlimitedTmin=250
limitTemperature=limitT, Type=Upper, LimitedCells=3472, CellsPercent=41.7, Tmax=6000, UnlimitedTmax=6000
limitTemperature=limitT, Type=Lower, LimitedCells=429, CellsPercent=65.8, Tmin=250, UnlimitedTmin=250
limitTemperature=limitT, Type=Upper, LimitedCells=161, CellsPercent=24.69, Tmax=6000, UnlimitedTmax=6000
limitTemperature=limitT, Type=Lower, LimitedCells=287, CellsPercent=33.73, Tmin=250, UnlimitedTmin=250
limitTemperature=limitT, Type=Upper, LimitedCells=126, CellsPercent=14.81, Tmax=6000, UnlimitedTmax=314.71797
limitTemperature=limitT, Type=Lower, LimitedCells=259, CellsPercent=95.22, Tmin=250, UnlimitedTmin=250
limitTemperature=limitT, Type=Upper, LimitedCells=13, CellsPercent=4.78, Tmax=6000, UnlimitedTmax=250
limitTemperature=limitT, Type=Lower, LimitedCells=201, CellsPercent=98.53, Tmin=250, UnlimitedTmin=250
limitTemperature=limitT, Type=Upper, LimitedCells=3, CellsPercent=1.47, Tmax=6000, UnlimitedTmax=1556.1952
limitTemperature=limitT, Type=Lower, LimitedCells=12, CellsPercent=37.5, Tmin=250, UnlimitedTmin=250
limitTemperature=limitT, Type=Upper, LimitedCells=20, CellsPercent=62.5, Tmax=6000, UnlimitedTmax=250
limitTemperature=limitT, Type=Lower, LimitedCells=0, CellsPercent=0, Tmin=250, UnlimitedTmin=6000
limitTemperature=limitT, Type=Upper, LimitedCells=12, CellsPercent=100, Tmax=6000, UnlimitedTmax=6000
DICPBiCGStab:  Solving for p_rgh, Initial residual = 0.94254761, Final residual = 0.081414261, No Iterations 1
time step continuity errors : sum local = 7.9209153e+12, global = -32703204, cumulative = -94550008
Min/max rho:0.0042672812 7.8443539e+10
DILUPBiCGStab:  Solving for epsilon, Initial residual = 0.34854249, Final residual = 0.01268171, No Iterations 3
bounding epsilon, min: -1.3045845e+15 max: 1.0853625e+13 average: -4.0038295e+11
DILUPBiCGStab:  Solving for k, Initial residual = 0.99848936, Final residual = 0.038335456, No Iterations 1
bounding k, min: -63558552 max: 2.1098797e+15 average: 1.4485507e+12
ExecutionTime = 12.71 s  ClockTime = 12 s

volFieldValue fluid write:
    volAverage(fluid) of T = 2565.3167

volFieldValue pcb write:
    volAverage(pcb) of T = 1486.0902

volFieldValue component_0 write:
    volAverage(component_0) of T = 1074.2341

volFieldValue component_1 write:
    volAverage(component_1) of T = 522.71903

volFieldValue component_2 write:
    volAverage(component_2) of T = 333.98373

volFieldValue component_3 write:
    volAverage(component_3) of T = 3840.7424

volFieldValue component_4 write:
    volAverage(component_4) of T = 6000

Time = 170


Solving for fluid region fluid
DILUPBiCGStab:  Solving for Ux, Initial residual = 0.50011339, Final residual = 0.011400518, No Iterations 7
DILUPBiCGStab:  Solving for Uy, Initial residual = 0.21693218, Final residual = 0.0062682265, No Iterations 8

Solving energy coupled regions
Using lduPrimitiveAssembly: lduAssembly456789
DILUPBiCGStab:  Solving for h, Initial residual = 1, Final residual = 0.013656603, No Iterations 14
limitTemperature=limitT, Type=Lower, LimitedCells=3834, CellsPercent=46.04, Tmin=250, UnlimitedTmin=250
limitTemperature=limitT, Type=Upper, LimitedCells=3387, CellsPercent=40.67, Tmax=6000, UnlimitedTmax=6000
limitTemperature=limitT, Type=Lower, LimitedCells=199, CellsPercent=30.52, Tmin=250, UnlimitedTmin=250
limitTemperature=limitT, Type=Upper, LimitedCells=441, CellsPercent=67.64, Tmax=6000, UnlimitedTmax=6000
limitTemperature=limitT, Type=Lower, LimitedCells=122, CellsPercent=14.34, Tmin=250, UnlimitedTmin=250
limitTemperature=limitT, Type=Upper, LimitedCells=591, CellsPercent=69.45, Tmax=6000, UnlimitedTmax=6000
limitTemperature=limitT, Type=Lower, LimitedCells=271, CellsPercent=99.63, Tmin=250, UnlimitedTmin=250
limitTemperature=limitT, Type=Upper, LimitedCells=1, CellsPercent=0.37, Tmax=6000, UnlimitedTmax=6000
limitTemperature=limitT, Type=Lower, LimitedCells=70, CellsPercent=34.31, Tmin=250, UnlimitedTmin=250
limitTemperature=limitT, Type=Upper, LimitedCells=134, CellsPercent=65.69, Tmax=6000, UnlimitedTmax=6000
limitTemperature=limitT, Type=Lower, LimitedCells=0, CellsPercent=0, Tmin=250, UnlimitedTmin=250
limitTemperature=limitT, Type=Upper, LimitedCells=32, CellsPercent=100, Tmax=6000, UnlimitedTmax=6000
limitTemperature=limitT, Type=Lower, LimitedCells=0, CellsPercent=0, Tmin=250, UnlimitedTmin=6000
limitTemperature=limitT, Type=Upper, LimitedCells=12, CellsPercent=100, Tmax=6000, UnlimitedTmax=6000
DICPBiCGStab:  Solving for p_rgh, Initial residual = 0.96476571, Final residual = 0.08766471, No Iterations 3
time step continuity errors : sum local = 2.4940343e+22, global = -1.5091928e+20, cumulative = -1.5091928e+20
Min/max rho:0.0021336406 3.4127237e+14
DILUPBiCGStab:  Solving for epsilon, Initial residual = 0.99769232, Final residual = 0.021234087, No Iterations 2
bounding epsilon, min: -1.9523703e+16 max: 2.0008041e+19 average: 6.1695425e+15
DILUPBiCGStab:  Solving for k, Initial residual = 0.0938175, Final residual = 0.00054315163, No Iterations 2
bounding k, min: -1.096822e+11 max: 1.1594053e+29 average: 1.3948008e+25
ExecutionTime = 12.75 s  ClockTime = 12 s

volFieldValue fluid write:
    volAverage(fluid) of T = 2553.0381

volFieldValue pcb write:
    volAverage(pcb) of T = 4162.8634

volFieldValue component_0 write:
    volAverage(component_0) of T = 4409.6167

volFieldValue component_1 write:
    volAverage(component_1) of T = 271.15073

volFieldValue component_2 write:
    volAverage(component_2) of T = 4026.7654

volFieldValue component_3 write:
    volAverage(component_3) of T = 6000

volFieldValue component_4 write:
    volAverage(component_4) of T = 6000

Time = 171


Solving for fluid region fluid
DILUPBiCGStab:  Solving for Ux, Initial residual = 0.30983777, Final residual = 0.01411986, No Iterations 3
DILUPBiCGStab:  Solving for Uy, Initial residual = 0.54516944, Final residual = 0.016520619, No Iterations 4

Solving energy coupled regions
Using lduPrimitiveAssembly: lduAssembly456789
DILUPBiCGStab:  Solving for h, Initial residual = 1, Final residual = 6.1349971e-05, No Iterations 21
limitTemperature=limitT, Type=Lower, LimitedCells=3807, CellsPercent=45.72, Tmin=250, UnlimitedTmin=250
limitTemperature=limitT, Type=Upper, LimitedCells=4319, CellsPercent=51.87, Tmax=6000, UnlimitedTmax=6000
limitTemperature=limitT, Type=Lower, LimitedCells=134, CellsPercent=20.55, Tmin=250, UnlimitedTmin=250
limitTemperature=limitT, Type=Upper, LimitedCells=518, CellsPercent=79.45, Tmax=6000, UnlimitedTmax=6000
limitTemperature=limitT, Type=Lower, LimitedCells=135, CellsPercent=15.86, Tmin=250, UnlimitedTmin=250
limitTemperature=limitT, Type=Upper, LimitedCells=716, CellsPercent=84.14, Tmax=6000, UnlimitedTmax=6000
limitTemperature=limitT, Type=Lower, LimitedCells=0, CellsPercent=0, Tmin=250, UnlimitedTmin=250
limitTemperature=limitT, Type=Upper, LimitedCells=272, CellsPercent=100, Tmax=6000, UnlimitedTmax=6000
limitTemperature=limitT, Type=Lower, LimitedCells=0, CellsPercent=0, Tmin=250, UnlimitedTmin=250
limitTemperature=limitT, Type=Upper, LimitedCells=204, CellsPercent=100, Tmax=6000, UnlimitedTmax=6000
limitTemperature=limitT, Type=Lower, LimitedCells=0, CellsPercent=0, Tmin=250, UnlimitedTmin=6000
limitTemperature=limitT, Type=Upper, LimitedCells=32, CellsPercent=100, Tmax=6000, UnlimitedTmax=6000
limitTemperature=limitT, Type=Lower, LimitedCells=3, CellsPercent=25, Tmin=250, UnlimitedTmin=6000
limitTemperature=limitT, Type=Upper, LimitedCells=9, CellsPercent=75, Tmax=6000, UnlimitedTmax=6000
DICPBiCGStab:  Solving for p_rgh, Initial residual = 0.93149854, Final residual = 330.91011, No Iterations 1000
time step continuity errors : sum local = 2.3319185e+33, global = -1.2673014e+30, cumulative = -1.2673014e+30
Min/max rho:0.0019127511 6.7063618e+14
DILUPBiCGStab:  Solving for epsilon, Initial residual = 0.004977206, Final residual = 9.8009424e-05, No Iterations 9
bounding epsilon, min: -3.6122677e+39 max: 1.0392483e+41 average: 3.7728928e+37
DILUPBiCGStab:  Solving for k, Initial residual = 1.0386745e-05, Final residual = 7.9801758e-07, No Iterations 1
bounding k, min: -6.6520574e+27 max: 1.7634984e+47 average: 5.0359984e+43
ExecutionTime = 13.7 s  ClockTime = 13 s

volFieldValue fluid write:
    volAverage(fluid) of T = 3330.9181

volFieldValue pcb write:
    volAverage(pcb) of T = 4949.7208

volFieldValue component_0 write:
    volAverage(component_0) of T = 5136.4013

volFieldValue component_1 write:
    volAverage(component_1) of T = 6000

volFieldValue component_2 write:
    volAverage(component_2) of T = 6000

volFieldValue component_3 write:
    volAverage(component_3) of T = 6000

volFieldValue component_4 write:
    volAverage(component_4) of T = 4558.8314

Time = 172


Solving for fluid region fluid
DILUPBiCGStab:  Solving for Ux, Initial residual = 8.8565085e-06, Final residual = 8.9042922e-07, No Iterations 14
DILUPBiCGStab:  Solving for Uy, Initial residual = 1.576228e-05, Final residual = 2.0663601e-07, No Iterations 13

Solving energy coupled regions
Using lduPrimitiveAssembly: lduAssembly456789
[stack trace]
=============
#1  Foam::sigFpe::sigHandler(int) in /usr/lib/openfoam/openfoam2506/platforms/linux64GccDPInt32Opt/lib/libOpenFOAM.so
#2  ? in /lib/x86_64-linux-gnu/libc.so.6
#3  Foam::PBiCGStab::scalarSolve(Foam::Field<double>&, Foam::Field<double> const&, unsigned char) const in /usr/lib/openfoam/openfoam2506/platforms/linux64GccDPInt32Opt/lib/libOpenFOAM.so
#4  Foam::PBiCGStab::solve(Foam::Field<double>&, Foam::Field<double> const&, unsigned char) const in /usr/lib/openfoam/openfoam2506/platforms/linux64GccDPInt32Opt/lib/libOpenFOAM.so
#5  Foam::fvMatrix<double>::solveSegregated(Foam::dictionary const&) in /usr/lib/openfoam/openfoam2506/platforms/linux64GccDPInt32Opt/lib/libfiniteVolume.so
#6  ? in /usr/lib/openfoam/openfoam2506/platforms/linux64GccDPInt32Opt/lib/libfiniteVolume.so
#7  Foam::fvMesh::solve(Foam::fvMatrix<double>&, Foam::dictionary const&) const in /usr/lib/openfoam/openfoam2506/platforms/linux64GccDPInt32Opt/lib/libfiniteVolume.so
#8  ? in /usr/lib/openfoam/openfoam2506/platforms/linux64GccDPInt32Opt/bin/chtMultiRegionSimpleFoam
#9  ? in /usr/lib/openfoam/openfoam2506/platforms/linux64GccDPInt32Opt/bin/chtMultiRegionSimpleFoam
#10  ? in /lib/x86_64-linux-gnu/libc.so.6
#11  __libc_start_main in /lib/x86_64-linux-gnu/libc.so.6
#12  ? in /usr/lib/openfoam/openfoam2506/platforms/linux64GccDPInt32Opt/bin/chtMultiRegionSimpleFoam
=============
Floating point exception (core dumped)
