/*---------------------------------------------------------------------------*\
| =========                 |                                                 |
| \\      /  F ield         | OpenFOAM: The Open Source CFD Toolbox           |
|  \\    /   O peration     | Version:  2506                                  |
|   \\  /    A nd           | Website:  www.openfoam.com                      |
|    \\/     M anipulation  |                                                 |
\*---------------------------------------------------------------------------*/
Build  : _615aae61-20250627 OPENFOAM=2506 version=2506
Arch   : "LSB;label=32;scalar=64"
Exec   : chtMultiRegionSimpleFoam
Date   : Sep 23 2025
Time   : 23:02:16
Host   : instance-20250906-0051
PID    : 230390
I/O    : uncollated
Case   : /home/ubuntu/ThermalUNet/data_generation/simulation_results/case_0
nProcs : 1
trapFpe: Floating point exception trapping enabled (FOAM_SIGFPE).
fileModificationChecking : Monitoring run-time modified files using timeStampMaster (fileModificationSkew 5, maxFileModificationPolls 20)
allowSystemOperations : Allowing user-supplied system call operations

// * * * * * * * * * * * * * * * * * * * * * * * * * * * * * * * * * * * * * //
Create time

Create fluid mesh for region fluid for time = 0

Create solid mesh for region pcb for time = 0

Create solid mesh for region component_0 for time = 0

Create solid mesh for region component_1 for time = 0

Create solid mesh for region component_2 for time = 0

Create solid mesh for region component_3 for time = 0

Create solid mesh for region component_4 for time = 0

*** Reading fluid mesh thermophysical properties for region fluid

    Adding to thermoFluid

Selecting thermodynamics package 
{
    type            heRhoThermo;
    mixture         pureMixture;
    transport       const;
    thermo          hConst;
    equationOfState perfectGas;
    specie          specie;
    energy          sensibleEnthalpy;
}

    Adding to rhoFluid

    Adding to UFluid

    Adding to phiFluid

    Adding to hRefFluid

    Adding to ghFluid

    Adding to ghfFluid

    Adding to turbulence

Selecting turbulence model type RAS
Selecting RAS turbulence model realizableKE
RAS
{
    RASModel        realizableKE;
    turbulence      on;
    printCoeffs     on;
    A0              4;
    C2              1.9;
    sigmak          1;
    sigmaEps        1.2;
}

Radiation model not active: radiationProperties not found
Selecting radiationModel none
    Adding MRF

No MRF models present

    Adding fvOptions

Creating finite volume options from "system/fvOptions"

Selecting finite volume options type limitTemperature
    Source: limitT
    State: active
    - selecting all cells
    - selected 9628 cell(s) with volume 17.989041
*** Reading solid mesh thermophysical properties for region pcb

    Adding to thermos

Selecting thermodynamics package 
{
    type            heSolidThermo;
    mixture         pureMixture;
    transport       constIso;
    thermo          hConst;
    equationOfState rhoConst;
    specie          specie;
    energy          sensibleEnthalpy;
}

    Adding to radiations

Radiation model not active: radiationProperties not found
Selecting radiationModel none
    Adding fvOptions

Creating finite volume options from "system/fvOptions"

Selecting finite volume options type limitTemperature
    Source: limitT
    State: active
    - selecting all cells
    - selected 512 cell(s) with volume 1.0300442
*** Reading solid mesh thermophysical properties for region component_0

    Adding to thermos

Selecting thermodynamics package 
{
    type            heSolidThermo;
    mixture         pureMixture;
    transport       constIso;
    thermo          hConst;
    equationOfState rhoConst;
    specie          specie;
    energy          sensibleEnthalpy;
}

    Adding to radiations

Radiation model not active: radiationProperties not found
Selecting radiationModel none
    Adding fvOptions

Creating finite volume options from "system/fvOptions"

Selecting finite volume options type scalarSemiImplicitSource
    Source: v_CPU_AbsoluteEnergySource
    State: active
    - selecting cells using cellZones (component_0)
    - selected 96 cell(s) with volume 0.1630875
Selecting finite volume options type limitTemperature
    Source: limitT
    State: active
    - selecting all cells
    - selected 96 cell(s) with volume 0.1630875
*** Reading solid mesh thermophysical properties for region component_1

    Adding to thermos

Selecting thermodynamics package 
{
    type            heSolidThermo;
    mixture         pureMixture;
    transport       constIso;
    thermo          hConst;
    equationOfState rhoConst;
    specie          specie;
    energy          sensibleEnthalpy;
}

    Adding to radiations

Radiation model not active: radiationProperties not found
Selecting radiationModel none
    Adding fvOptions

Creating finite volume options from "system/fvOptions"

Selecting finite volume options type scalarSemiImplicitSource
    Source: v_CPU_AbsoluteEnergySource
    State: active
    - selecting cells using cellZones (component_1)
    - selected 159 cell(s) with volume 0.2733542
Selecting finite volume options type limitTemperature
    Source: limitT
    State: active
    - selecting all cells
    - selected 159 cell(s) with volume 0.2733542
*** Reading solid mesh thermophysical properties for region component_2

    Adding to thermos

Selecting thermodynamics package 
{
    type            heSolidThermo;
    mixture         pureMixture;
    transport       constIso;
    thermo          hConst;
    equationOfState rhoConst;
    specie          specie;
    energy          sensibleEnthalpy;
}

    Adding to radiations

Radiation model not active: radiationProperties not found
Selecting radiationModel none
    Adding fvOptions

Creating finite volume options from "system/fvOptions"

Selecting finite volume options type scalarSemiImplicitSource
    Source: v_CPU_AbsoluteEnergySource
    State: active
    - selecting cells using cellZones (component_2)
    - selected 45 cell(s) with volume 0.06399511
Selecting finite volume options type limitTemperature
    Source: limitT
    State: active
    - selecting all cells
    - selected 45 cell(s) with volume 0.06399511
*** Reading solid mesh thermophysical properties for region component_3

    Adding to thermos

Selecting thermodynamics package 
{
    type            heSolidThermo;
    mixture         pureMixture;
    transport       constIso;
    thermo          hConst;
    equationOfState rhoConst;
    specie          specie;
    energy          sensibleEnthalpy;
}

    Adding to radiations

Radiation model not active: radiationProperties not found
Selecting radiationModel none
    Adding fvOptions

Creating finite volume options from "system/fvOptions"

Selecting finite volume options type scalarSemiImplicitSource
    Source: v_CPU_AbsoluteEnergySource
    State: active
    - selecting cells using cellZones (component_3)
    - selected 115 cell(s) with volume 0.18896894
Selecting finite volume options type limitTemperature
    Source: limitT
    State: active
    - selecting all cells
    - selected 115 cell(s) with volume 0.18896894
*** Reading solid mesh thermophysical properties for region component_4

    Adding to thermos

Selecting thermodynamics package 
{
    type            heSolidThermo;
    mixture         pureMixture;
    transport       constIso;
    thermo          hConst;
    equationOfState rhoConst;
    specie          specie;
    energy          sensibleEnthalpy;
}

    Adding to radiations

Radiation model not active: radiationProperties not found
Selecting radiationModel none
    Adding fvOptions

Creating finite volume options from "system/fvOptions"

Selecting finite volume options type scalarSemiImplicitSource
    Source: v_CPU_AbsoluteEnergySource
    State: active
    - selecting cells using cellZones (component_4)
    - selected 161 cell(s) with volume 0.291509
Selecting finite volume options type limitTemperature
    Source: limitT
    State: active
    - selecting all cells
    - selected 161 cell(s) with volume 0.291509
Create fvMatrixAssembly.
--> FOAM Warning : 

    failed lookup of region0 (objectRegistry case_0)
    available objects of type objectRegistry:
7(component_3 component_0 component_1 fluid pcb component_4 component_2)


    From const Type& Foam::objectRegistry::lookupObject(const Foam::word&, bool) const [with Type = Foam::objectRegistry]
    in file db/objectRegistry/objectRegistryTemplates.C at line 628.
--> loading function object 'limitT'

Time = 1


Solving for fluid region fluid
DILUPBiCGStab:  Solving for Ux, Initial residual = 1, Final residual = 0.035461335, No Iterations 2
DILUPBiCGStab:  Solving for Uy, Initial residual = 1, Final residual = 0.030388465, No Iterations 2

Solving energy coupled regions
Creating lduPrimitiveAssembly: lduAssembly456789
DILUPBiCGStab:  Solving for h, Initial residual = 0.021540113, Final residual = 0.00033104817, No Iterations 1
limitTemperature=limitT, Type=Lower, LimitedCells=0, CellsPercent=0, Tmin=250, UnlimitedTmin=300
limitTemperature=limitT, Type=Upper, LimitedCells=0, CellsPercent=0, Tmax=6000, UnlimitedTmax=300
limitTemperature=limitT, Type=Lower, LimitedCells=0, CellsPercent=0, Tmin=250, UnlimitedTmin=300
limitTemperature=limitT, Type=Upper, LimitedCells=0, CellsPercent=0, Tmax=6000, UnlimitedTmax=300
limitTemperature=limitT, Type=Lower, LimitedCells=0, CellsPercent=0, Tmin=250, UnlimitedTmin=300
limitTemperature=limitT, Type=Upper, LimitedCells=0, CellsPercent=0, Tmax=600, UnlimitedTmax=300
limitTemperature=limitT, Type=Lower, LimitedCells=0, CellsPercent=0, Tmin=250, UnlimitedTmin=300
limitTemperature=limitT, Type=Upper, LimitedCells=0, CellsPercent=0, Tmax=600, UnlimitedTmax=300
limitTemperature=limitT, Type=Lower, LimitedCells=0, CellsPercent=0, Tmin=250, UnlimitedTmin=300
limitTemperature=limitT, Type=Upper, LimitedCells=0, CellsPercent=0, Tmax=600, UnlimitedTmax=300
limitTemperature=limitT, Type=Lower, LimitedCells=0, CellsPercent=0, Tmin=250, UnlimitedTmin=300
limitTemperature=limitT, Type=Upper, LimitedCells=0, CellsPercent=0, Tmax=600, UnlimitedTmax=300
limitTemperature=limitT, Type=Lower, LimitedCells=0, CellsPercent=0, Tmin=250, UnlimitedTmin=300
limitTemperature=limitT, Type=Upper, LimitedCells=0, CellsPercent=0, Tmax=600, UnlimitedTmax=300
DICPBiCGStab:  Solving for p_rgh, Initial residual = 1, Final residual = 0.072883633, No Iterations 107
time step continuity errors : sum local = 0.0052001462, global = -0.0043368836, cumulative = -0.0043368836
Min/max rho:1.1766069 1.1766572
DILUPBiCGStab:  Solving for epsilon, Initial residual = 0.91844373, Final residual = 0.01039196, No Iterations 1
DILUPBiCGStab:  Solving for k, Initial residual = 1, Final residual = 0.0047151968, No Iterations 1
ExecutionTime = 0.43 s  ClockTime = 0 s

volFieldValue fluid write:
    volAverage(fluid) of T = 300.00011

volFieldValue pcb write:
    volAverage(pcb) of T = 300.01163

volFieldValue component_0 write:
    volAverage(component_0) of T = 301.03567

volFieldValue component_1 write:
    volAverage(component_1) of T = 302.21144

volFieldValue component_2 write:
    volAverage(component_2) of T = 301.40974

volFieldValue component_3 write:
    volAverage(component_3) of T = 301.70787

volFieldValue component_4 write:
    volAverage(component_4) of T = 300.25689

Time = 2


Solving for fluid region fluid
DILUPBiCGStab:  Solving for Ux, Initial residual = 0.60421644, Final residual = 0.0095775901, No Iterations 2
DILUPBiCGStab:  Solving for Uy, Initial residual = 0.58658513, Final residual = 0.010133317, No Iterations 2

Solving energy coupled regions
Using lduPrimitiveAssembly: lduAssembly456789
DILUPBiCGStab:  Solving for h, Initial residual = 0.022445785, Final residual = 0.00028156015, No Iterations 1
limitTemperature=limitT, Type=Lower, LimitedCells=0, CellsPercent=0, Tmin=250, UnlimitedTmin=299.9991
limitTemperature=limitT, Type=Upper, LimitedCells=0, CellsPercent=0, Tmax=6000, UnlimitedTmax=300.02477
limitTemperature=limitT, Type=Lower, LimitedCells=0, CellsPercent=0, Tmin=250, UnlimitedTmin=299.99958
limitTemperature=limitT, Type=Upper, LimitedCells=0, CellsPercent=0, Tmax=6000, UnlimitedTmax=300.1214
limitTemperature=limitT, Type=Lower, LimitedCells=0, CellsPercent=0, Tmin=250, UnlimitedTmin=300.90465
limitTemperature=limitT, Type=Upper, LimitedCells=0, CellsPercent=0, Tmax=600, UnlimitedTmax=301.32381
limitTemperature=limitT, Type=Lower, LimitedCells=0, CellsPercent=0, Tmin=250, UnlimitedTmin=301.60281
limitTemperature=limitT, Type=Upper, LimitedCells=0, CellsPercent=0, Tmax=600, UnlimitedTmax=302.71621
limitTemperature=limitT, Type=Lower, LimitedCells=0, CellsPercent=0, Tmin=250, UnlimitedTmin=301.08074
limitTemperature=limitT, Type=Upper, LimitedCells=0, CellsPercent=0, Tmax=600, UnlimitedTmax=301.74101
limitTemperature=limitT, Type=Lower, LimitedCells=0, CellsPercent=0, Tmin=250, UnlimitedTmin=301.12092
limitTemperature=limitT, Type=Upper, LimitedCells=0, CellsPercent=0, Tmax=600, UnlimitedTmax=302.14209
limitTemperature=limitT, Type=Lower, LimitedCells=0, CellsPercent=0, Tmin=250, UnlimitedTmin=300.18062
limitTemperature=limitT, Type=Upper, LimitedCells=0, CellsPercent=0, Tmax=600, UnlimitedTmax=300.31802
DICPBiCGStab:  Solving for p_rgh, Initial residual = 0.24562549, Final residual = 0.012681197, No Iterations 126
time step continuity errors : sum local = 0.003347385, global = -0.00035304763, cumulative = -0.0046899313
Min/max rho:1.171527 1.1766765
DILUPBiCGStab:  Solving for epsilon, Initial residual = 0.90024411, Final residual = 0.021312261, No Iterations 1
DILUPBiCGStab:  Solving for k, Initial residual = 0.91123962, Final residual = 0.007872469, No Iterations 1
ExecutionTime = 0.6 s  ClockTime = 0 s

volFieldValue fluid write:
    volAverage(fluid) of T = 300.00023

volFieldValue pcb write:
    volAverage(pcb) of T = 300.03362

volFieldValue component_0 write:
    volAverage(component_0) of T = 302.0583

volFieldValue component_1 write:
    volAverage(component_1) of T = 304.39749

volFieldValue component_2 write:
    volAverage(component_2) of T = 302.79084

volFieldValue component_3 write:
    volAverage(component_3) of T = 303.38175

volFieldValue component_4 write:
    volAverage(component_4) of T = 300.51125

Time = 3


Solving for fluid region fluid
DILUPBiCGStab:  Solving for Ux, Initial residual = 0.39405797, Final residual = 0.0069571284, No Iterations 2
DILUPBiCGStab:  Solving for Uy, Initial residual = 0.34906297, Final residual = 0.00060005479, No Iterations 3

Solving energy coupled regions
Using lduPrimitiveAssembly: lduAssembly456789
DILUPBiCGStab:  Solving for h, Initial residual = 0.022054694, Final residual = 0.0002756977, No Iterations 1
limitTemperature=limitT, Type=Lower, LimitedCells=0, CellsPercent=0, Tmin=250, UnlimitedTmin=299.99933
limitTemperature=limitT, Type=Upper, LimitedCells=0, CellsPercent=0, Tmax=6000, UnlimitedTmax=300.05881
limitTemperature=limitT, Type=Lower, LimitedCells=0, CellsPercent=0, Tmin=250, UnlimitedTmin=299.99942
limitTemperature=limitT, Type=Upper, LimitedCells=0, CellsPercent=0, Tmax=6000, UnlimitedTmax=300.34235
limitTemperature=limitT, Type=Lower, LimitedCells=0, CellsPercent=0, Tmin=250, UnlimitedTmin=301.84331
limitTemperature=limitT, Type=Upper, LimitedCells=0, CellsPercent=0, Tmax=600, UnlimitedTmax=302.48762
limitTemperature=limitT, Type=Lower, LimitedCells=0, CellsPercent=0, Tmin=250, UnlimitedTmin=303.42005
limitTemperature=limitT, Type=Upper, LimitedCells=0, CellsPercent=0, Tmax=600, UnlimitedTmax=305.13213
limitTemperature=limitT, Type=Lower, LimitedCells=0, CellsPercent=0, Tmin=250, UnlimitedTmin=302.27804
limitTemperature=limitT, Type=Upper, LimitedCells=0, CellsPercent=0, Tmax=600, UnlimitedTmax=303.24758
limitTemperature=limitT, Type=Lower, LimitedCells=0, CellsPercent=0, Tmin=250, UnlimitedTmin=302.40281
limitTemperature=limitT, Type=Upper, LimitedCells=0, CellsPercent=0, Tmax=600, UnlimitedTmax=304.10562
limitTemperature=limitT, Type=Lower, LimitedCells=0, CellsPercent=0, Tmin=250, UnlimitedTmin=300.38562
limitTemperature=limitT, Type=Upper, LimitedCells=0, CellsPercent=0, Tmax=600, UnlimitedTmax=300.59534
DICPBiCGStab:  Solving for p_rgh, Initial residual = 0.11544035, Final residual = 0.011428754, No Iterations 10
time step continuity errors : sum local = 0.0078735402, global = -0.003024005, cumulative = -0.0077139362
Min/max rho:1.1646718 1.1767183
DILUPBiCGStab:  Solving for epsilon, Initial residual = 0.79302182, Final residual = 0.031335105, No Iterations 1
DILUPBiCGStab:  Solving for k, Initial residual = 0.7790476, Final residual = 0.0099671515, No Iterations 1
ExecutionTime = 0.64 s  ClockTime = 0 s

volFieldValue fluid write:
    volAverage(fluid) of T = 300.00096

volFieldValue pcb write:
    volAverage(pcb) of T = 300.06394

volFieldValue component_0 write:
    volAverage(component_0) of T = 302.99479

volFieldValue component_1 write:
    volAverage(component_1) of T = 306.43287

volFieldValue component_2 write:
    volAverage(component_2) of T = 304.07648

volFieldValue component_3 write:
    volAverage(component_3) of T = 304.90471

volFieldValue component_4 write:
    volAverage(component_4) of T = 300.75172

Time = 4


Solving for fluid region fluid
DILUPBiCGStab:  Solving for Ux, Initial residual = 0.24577117, Final residual = 0.0041877225, No Iterations 2
DILUPBiCGStab:  Solving for Uy, Initial residual = 0.21227718, Final residual = 0.0060884427, No Iterations 2

Solving energy coupled regions
Using lduPrimitiveAssembly: lduAssembly456789
DILUPBiCGStab:  Solving for h, Initial residual = 0.022378642, Final residual = 0.00029081121, No Iterations 1
limitTemperature=limitT, Type=Lower, LimitedCells=0, CellsPercent=0, Tmin=250, UnlimitedTmin=299.99969
limitTemperature=limitT, Type=Upper, LimitedCells=0, CellsPercent=0, Tmax=6000, UnlimitedTmax=300.14416
limitTemperature=limitT, Type=Lower, LimitedCells=0, CellsPercent=0, Tmin=250, UnlimitedTmin=299.9996
limitTemperature=limitT, Type=Upper, LimitedCells=0, CellsPercent=0, Tmax=6000, UnlimitedTmax=300.63823
limitTemperature=limitT, Type=Lower, LimitedCells=0, CellsPercent=0, Tmin=250, UnlimitedTmin=302.78359
limitTemperature=limitT, Type=Upper, LimitedCells=0, CellsPercent=0, Tmax=600, UnlimitedTmax=303.40962
limitTemperature=limitT, Type=Lower, LimitedCells=0, CellsPercent=0, Tmin=250, UnlimitedTmin=305.25959
limitTemperature=limitT, Type=Upper, LimitedCells=0, CellsPercent=0, Tmax=600, UnlimitedTmax=307.42087
limitTemperature=limitT, Type=Lower, LimitedCells=0, CellsPercent=0, Tmin=250, UnlimitedTmin=303.46797
limitTemperature=limitT, Type=Upper, LimitedCells=0, CellsPercent=0, Tmax=600, UnlimitedTmax=304.64718
limitTemperature=limitT, Type=Lower, LimitedCells=0, CellsPercent=0, Tmin=250, UnlimitedTmin=303.65253
limitTemperature=limitT, Type=Upper, LimitedCells=0, CellsPercent=0, Tmax=600, UnlimitedTmax=305.92188
limitTemperature=limitT, Type=Lower, LimitedCells=0, CellsPercent=0, Tmin=250, UnlimitedTmin=300.60205
limitTemperature=limitT, Type=Upper, LimitedCells=0, CellsPercent=0, Tmax=600, UnlimitedTmax=300.83618
DICPBiCGStab:  Solving for p_rgh, Initial residual = 0.16194689, Final residual = 0.015943342, No Iterations 15
time step continuity errors : sum local = 0.01210444, global = -0.0039163448, cumulative = -0.011630281
Min/max rho:1.1578185 1.1767379
DILUPBiCGStab:  Solving for epsilon, Initial residual = 0.58413738, Final residual = 0.0014761922, No Iterations 1
DILUPBiCGStab:  Solving for k, Initial residual = 0.62458226, Final residual = 0.011826577, No Iterations 1
ExecutionTime = 0.72 s  ClockTime = 0 s

volFieldValue fluid write:
    volAverage(fluid) of T = 300.00219

volFieldValue pcb write:
    volAverage(pcb) of T = 300.10258

volFieldValue component_0 write:
    volAverage(component_0) of T = 303.88569

volFieldValue component_1 write:
    volAverage(component_1) of T = 308.38444

volFieldValue component_2 write:
    volAverage(component_2) of T = 305.31592

volFieldValue component_3 write:
    volAverage(component_3) of T = 306.34711

volFieldValue component_4 write:
    volAverage(component_4) of T = 300.98435

Time = 5


Solving for fluid region fluid
DILUPBiCGStab:  Solving for Ux, Initial residual = 0.15785955, Final residual = 0.0027825599, No Iterations 2
DILUPBiCGStab:  Solving for Uy, Initial residual = 0.12065442, Final residual = 0.0024114476, No Iterations 2

Solving energy coupled regions
Using lduPrimitiveAssembly: lduAssembly456789
DILUPBiCGStab:  Solving for h, Initial residual = 0.022952769, Final residual = 0.00029959771, No Iterations 1
limitTemperature=limitT, Type=Lower, LimitedCells=0, CellsPercent=0, Tmin=250, UnlimitedTmin=299.99961
limitTemperature=limitT, Type=Upper, LimitedCells=0, CellsPercent=0, Tmax=6000, UnlimitedTmax=300.52552
limitTemperature=limitT, Type=Lower, LimitedCells=0, CellsPercent=0, Tmin=250, UnlimitedTmin=299.99968
limitTemperature=limitT, Type=Upper, LimitedCells=0, CellsPercent=0, Tmax=6000, UnlimitedTmax=301.00292
limitTemperature=limitT, Type=Lower, LimitedCells=0, CellsPercent=0, Tmin=250, UnlimitedTmin=303.52241
limitTemperature=limitT, Type=Upper, LimitedCells=0, CellsPercent=0, Tmax=600, UnlimitedTmax=304.3217
limitTemperature=limitT, Type=Lower, LimitedCells=0, CellsPercent=0, Tmin=250, UnlimitedTmin=306.84833
limitTemperature=limitT, Type=Upper, LimitedCells=0, CellsPercent=0, Tmax=600, UnlimitedTmax=309.63347
limitTemperature=limitT, Type=Lower, LimitedCells=0, CellsPercent=0, Tmin=250, UnlimitedTmin=304.60839
limitTemperature=limitT, Type=Upper, LimitedCells=0, CellsPercent=0, Tmax=600, UnlimitedTmax=306.03351
limitTemperature=limitT, Type=Lower, LimitedCells=0, CellsPercent=0, Tmin=250, UnlimitedTmin=304.77634
limitTemperature=limitT, Type=Upper, LimitedCells=0, CellsPercent=0, Tmax=600, UnlimitedTmax=307.69905
limitTemperature=limitT, Type=Lower, LimitedCells=0, CellsPercent=0, Tmin=250, UnlimitedTmin=300.82291
limitTemperature=limitT, Type=Upper, LimitedCells=0, CellsPercent=0, Tmax=600, UnlimitedTmax=301.08815
DICPBiCGStab:  Solving for p_rgh, Initial residual = 0.19105675, Final residual = 0.019022206, No Iterations 28
time step continuity errors : sum local = 0.015217386, global = 0.0017459295, cumulative = -0.0098843516
Min/max rho:1.1511508 1.1767472
DILUPBiCGStab:  Solving for epsilon, Initial residual = 0.37359948, Final residual = 0.0022862913, No Iterations 1
bounding epsilon, min: -0.063333767 max: 10 average: 0.18440351
DILUPBiCGStab:  Solving for k, Initial residual = 0.47361376, Final residual = 0.011895395, No Iterations 1
ExecutionTime = 0.81 s  ClockTime = 1 s

volFieldValue fluid write:
    volAverage(fluid) of T = 300.00344

volFieldValue pcb write:
    volAverage(pcb) of T = 300.14864

volFieldValue component_0 write:
    volAverage(component_0) of T = 304.75864

volFieldValue component_1 write:
    volAverage(component_1) of T = 310.30104

volFieldValue component_2 write:
    volAverage(component_2) of T = 306.53504

volFieldValue component_3 write:
    volAverage(component_3) of T = 307.75647

volFieldValue component_4 write:
    volAverage(component_4) of T = 301.21328

Time = 6


Solving for fluid region fluid
DILUPBiCGStab:  Solving for Ux, Initial residual = 0.11692962, Final residual = 0.0023712586, No Iterations 2
DILUPBiCGStab:  Solving for Uy, Initial residual = 0.061873949, Final residual = 0.0013832174, No Iterations 2

Solving energy coupled regions
Using lduPrimitiveAssembly: lduAssembly456789
DILUPBiCGStab:  Solving for h, Initial residual = 0.023633341, Final residual = 0.00030587042, No Iterations 1
limitTemperature=limitT, Type=Lower, LimitedCells=0, CellsPercent=0, Tmin=250, UnlimitedTmin=299.99947
limitTemperature=limitT, Type=Upper, LimitedCells=0, CellsPercent=0, Tmax=6000, UnlimitedTmax=300.65966
limitTemperature=limitT, Type=Lower, LimitedCells=0, CellsPercent=0, Tmin=250, UnlimitedTmin=299.99955
limitTemperature=limitT, Type=Upper, LimitedCells=0, CellsPercent=0, Tmax=6000, UnlimitedTmax=301.43498
limitTemperature=limitT, Type=Lower, LimitedCells=0, CellsPercent=0, Tmin=250, UnlimitedTmin=304.13467
limitTemperature=limitT, Type=Upper, LimitedCells=0, CellsPercent=0, Tmax=600, UnlimitedTmax=305.31608
limitTemperature=limitT, Type=Lower, LimitedCells=0, CellsPercent=0, Tmin=250, UnlimitedTmin=307.93543
limitTemperature=limitT, Type=Upper, LimitedCells=0, CellsPercent=0, Tmax=600, UnlimitedTmax=311.79926
limitTemperature=limitT, Type=Lower, LimitedCells=0, CellsPercent=0, Tmin=250, UnlimitedTmin=305.73525
limitTemperature=limitT, Type=Upper, LimitedCells=0, CellsPercent=0, Tmax=600, UnlimitedTmax=307.37155
limitTemperature=limitT, Type=Lower, LimitedCells=0, CellsPercent=0, Tmin=250, UnlimitedTmin=305.71048
limitTemperature=limitT, Type=Upper, LimitedCells=0, CellsPercent=0, Tmax=600, UnlimitedTmax=309.4161
limitTemperature=limitT, Type=Lower, LimitedCells=0, CellsPercent=0, Tmin=250, UnlimitedTmin=301.01263
limitTemperature=limitT, Type=Upper, LimitedCells=0, CellsPercent=0, Tmax=600, UnlimitedTmax=301.33669
DICPBiCGStab:  Solving for p_rgh, Initial residual = 0.20361118, Final residual = 0.019939472, No Iterations 39
time step continuity errors : sum local = 0.015123975, global = 0.0092219734, cumulative = -0.00066237817
Min/max rho:1.1446775 1.1767482
DILUPBiCGStab:  Solving for epsilon, Initial residual = 0.2062049, Final residual = 0.0022643595, No Iterations 1
bounding epsilon, min: -0.074281056 max: 10 average: 0.12221131
DILUPBiCGStab:  Solving for k, Initial residual = 0.3370976, Final residual = 0.0097399228, No Iterations 1
ExecutionTime = 0.9 s  ClockTime = 1 s

volFieldValue fluid write:
    volAverage(fluid) of T = 300.00466

volFieldValue pcb write:
    volAverage(pcb) of T = 300.20143

volFieldValue component_0 write:
    volAverage(component_0) of T = 305.6212

volFieldValue component_1 write:
    volAverage(component_1) of T = 312.19569

volFieldValue component_2 write:
    volAverage(component_2) of T = 307.73987

volFieldValue component_3 write:
    volAverage(component_3) of T = 309.14012

volFieldValue component_4 write:
    volAverage(component_4) of T = 301.43968

Time = 7


Solving for fluid region fluid
DILUPBiCGStab:  Solving for Ux, Initial residual = 0.10120452, Final residual = 0.0019973379, No Iterations 2
DILUPBiCGStab:  Solving for Uy, Initial residual = 0.062954083, Final residual = 0.0018356998, No Iterations 2

Solving energy coupled regions
Using lduPrimitiveAssembly: lduAssembly456789
DILUPBiCGStab:  Solving for h, Initial residual = 0.024182618, Final residual = 0.00031319867, No Iterations 1
limitTemperature=limitT, Type=Lower, LimitedCells=0, CellsPercent=0, Tmin=250, UnlimitedTmin=299.99933
limitTemperature=limitT, Type=Upper, LimitedCells=0, CellsPercent=0, Tmax=6000, UnlimitedTmax=300.91311
limitTemperature=limitT, Type=Lower, LimitedCells=0, CellsPercent=0, Tmin=250, UnlimitedTmin=299.99943
limitTemperature=limitT, Type=Upper, LimitedCells=0, CellsPercent=0, Tmax=6000, UnlimitedTmax=301.92731
limitTemperature=limitT, Type=Lower, LimitedCells=0, CellsPercent=0, Tmin=250, UnlimitedTmin=304.81487
limitTemperature=limitT, Type=Upper, LimitedCells=0, CellsPercent=0, Tmax=600, UnlimitedTmax=306.29156
limitTemperature=limitT, Type=Lower, LimitedCells=0, CellsPercent=0, Tmin=250, UnlimitedTmin=309.26738
limitTemperature=limitT, Type=Upper, LimitedCells=0, CellsPercent=0, Tmax=600, UnlimitedTmax=313.9298
limitTemperature=limitT, Type=Lower, LimitedCells=0, CellsPercent=0, Tmin=250, UnlimitedTmin=306.84642
limitTemperature=limitT, Type=Upper, LimitedCells=0, CellsPercent=0, Tmax=600, UnlimitedTmax=308.67205
limitTemperature=limitT, Type=Lower, LimitedCells=0, CellsPercent=0, Tmin=250, UnlimitedTmin=306.6874
limitTemperature=limitT, Type=Upper, LimitedCells=0, CellsPercent=0, Tmax=600, UnlimitedTmax=311.08
limitTemperature=limitT, Type=Lower, LimitedCells=0, CellsPercent=0, Tmin=250, UnlimitedTmin=301.17656
limitTemperature=limitT, Type=Upper, LimitedCells=0, CellsPercent=0, Tmax=600, UnlimitedTmax=301.58311
DICPBiCGStab:  Solving for p_rgh, Initial residual = 0.19274203, Final residual = 0.018917616, No Iterations 73
time step continuity errors : sum local = 0.013036853, global = 0.013036853, cumulative = 0.012374475
Min/max rho:1.1383524 1.1767426
DILUPBiCGStab:  Solving for epsilon, Initial residual = 0.11552176, Final residual = 0.0020769681, No Iterations 1
bounding epsilon, min: -0.038840291 max: 10 average: 0.089094015
DILUPBiCGStab:  Solving for k, Initial residual = 0.19033639, Final residual = 0.0058993121, No Iterations 1
ExecutionTime = 1.02 s  ClockTime = 1 s

volFieldValue fluid write:
    volAverage(fluid) of T = 300.00599

volFieldValue pcb write:
    volAverage(pcb) of T = 300.26094

volFieldValue component_0 write:
    volAverage(component_0) of T = 306.4754

volFieldValue component_1 write:
    volAverage(component_1) of T = 314.06967

volFieldValue component_2 write:
    volAverage(component_2) of T = 308.93153

volFieldValue component_3 write:
    volAverage(component_3) of T = 310.50152

volFieldValue component_4 write:
    volAverage(component_4) of T = 301.664

Time = 8


Solving for fluid region fluid
DILUPBiCGStab:  Solving for Ux, Initial residual = 0.06957467, Final residual = 0.0012121094, No Iterations 2
DILUPBiCGStab:  Solving for Uy, Initial residual = 0.091577683, Final residual = 0.0030877253, No Iterations 2

Solving energy coupled regions
Using lduPrimitiveAssembly: lduAssembly456789
DILUPBiCGStab:  Solving for h, Initial residual = 0.024472058, Final residual = 0.00032058186, No Iterations 1
limitTemperature=limitT, Type=Lower, LimitedCells=0, CellsPercent=0, Tmin=250, UnlimitedTmin=299.99917
limitTemperature=limitT, Type=Upper, LimitedCells=0, CellsPercent=0, Tmax=6000, UnlimitedTmax=300.7679
limitTemperature=limitT, Type=Lower, LimitedCells=0, CellsPercent=0, Tmin=250, UnlimitedTmin=299.99932
limitTemperature=limitT, Type=Upper, LimitedCells=0, CellsPercent=0, Tmax=6000, UnlimitedTmax=302.47563
limitTemperature=limitT, Type=Lower, LimitedCells=0, CellsPercent=0, Tmin=250, UnlimitedTmin=305.50968
limitTemperature=limitT, Type=Upper, LimitedCells=0, CellsPercent=0, Tmax=600, UnlimitedTmax=307.24988
limitTemperature=limitT, Type=Lower, LimitedCells=0, CellsPercent=0, Tmin=250, UnlimitedTmin=310.69617
limitTemperature=limitT, Type=Upper, LimitedCells=0, CellsPercent=0, Tmax=600, UnlimitedTmax=316.0317
limitTemperature=limitT, Type=Lower, LimitedCells=0, CellsPercent=0, Tmin=250, UnlimitedTmin=307.92522
limitTemperature=limitT, Type=Upper, LimitedCells=0, CellsPercent=0, Tmax=600, UnlimitedTmax=309.9427
limitTemperature=limitT, Type=Lower, LimitedCells=0, CellsPercent=0, Tmin=250, UnlimitedTmin=307.64882
limitTemperature=limitT, Type=Upper, LimitedCells=0, CellsPercent=0, Tmax=600, UnlimitedTmax=312.69669
limitTemperature=limitT, Type=Lower, LimitedCells=0, CellsPercent=0, Tmin=250, UnlimitedTmin=301.3531
limitTemperature=limitT, Type=Upper, LimitedCells=0, CellsPercent=0, Tmax=600, UnlimitedTmax=301.82799
DICPBiCGStab:  Solving for p_rgh, Initial residual = 0.19830671, Final residual = 0.013019074, No Iterations 88
time step continuity errors : sum local = 0.0071962186, global = -0.0017778831, cumulative = 0.010596592
Min/max rho:1.1320484 1.1767234
DILUPBiCGStab:  Solving for epsilon, Initial residual = 0.078416943, Final residual = 0.001462137, No Iterations 1
bounding epsilon, min: -0.043447741 max: 10 average: 0.068303189
DILUPBiCGStab:  Solving for k, Initial residual = 0.083441338, Final residual = 0.0030802378, No Iterations 1
ExecutionTime = 1.14 s  ClockTime = 1 s

volFieldValue fluid write:
    volAverage(fluid) of T = 300.0075

volFieldValue pcb write:
    volAverage(pcb) of T = 300.32647

volFieldValue component_0 write:
    volAverage(component_0) of T = 307.32775

volFieldValue component_1 write:
    volAverage(component_1) of T = 315.92672

volFieldValue component_2 write:
    volAverage(component_2) of T = 310.11028

volFieldValue component_3 write:
    volAverage(component_3) of T = 311.84759

volFieldValue component_4 write:
    volAverage(component_4) of T = 301.88692

Time = 9


Solving for fluid region fluid
DILUPBiCGStab:  Solving for Ux, Initial residual = 0.096093034, Final residual = 0.0019679683, No Iterations 2
DILUPBiCGStab:  Solving for Uy, Initial residual = 0.12877083, Final residual = 0.0025306518, No Iterations 2

Solving energy coupled regions
Using lduPrimitiveAssembly: lduAssembly456789
DILUPBiCGStab:  Solving for h, Initial residual = 0.025538461, Final residual = 0.00033098341, No Iterations 1
limitTemperature=limitT, Type=Lower, LimitedCells=0, CellsPercent=0, Tmin=250, UnlimitedTmin=299.999
limitTemperature=limitT, Type=Upper, LimitedCells=0, CellsPercent=0, Tmax=6000, UnlimitedTmax=300.83724
limitTemperature=limitT, Type=Lower, LimitedCells=0, CellsPercent=0, Tmin=250, UnlimitedTmin=299.99923
limitTemperature=limitT, Type=Upper, LimitedCells=0, CellsPercent=0, Tmax=6000, UnlimitedTmax=303.07601
limitTemperature=limitT, Type=Lower, LimitedCells=0, CellsPercent=0, Tmin=250, UnlimitedTmin=306.20444
limitTemperature=limitT, Type=Upper, LimitedCells=0, CellsPercent=0, Tmax=600, UnlimitedTmax=308.19226
limitTemperature=limitT, Type=Lower, LimitedCells=0, CellsPercent=0, Tmin=250, UnlimitedTmin=312.15789
limitTemperature=limitT, Type=Upper, LimitedCells=0, CellsPercent=0, Tmax=600, UnlimitedTmax=318.10827
limitTemperature=limitT, Type=Lower, LimitedCells=0, CellsPercent=0, Tmin=250, UnlimitedTmin=309.01991
limitTemperature=limitT, Type=Upper, LimitedCells=0, CellsPercent=0, Tmax=600, UnlimitedTmax=311.19489
limitTemperature=limitT, Type=Lower, LimitedCells=0, CellsPercent=0, Tmin=250, UnlimitedTmin=308.58991
limitTemperature=limitT, Type=Upper, LimitedCells=0, CellsPercent=0, Tmax=600, UnlimitedTmax=314.27153
limitTemperature=limitT, Type=Lower, LimitedCells=0, CellsPercent=0, Tmin=250, UnlimitedTmin=301.53204
limitTemperature=limitT, Type=Upper, LimitedCells=0, CellsPercent=0, Tmax=600, UnlimitedTmax=302.07145
DICPBiCGStab:  Solving for p_rgh, Initial residual = 0.24962416, Final residual = 0.024466004, No Iterations 21
time step continuity errors : sum local = 0.015409681, global = 0.011495124, cumulative = 0.022091716
Min/max rho:1.1258218 1.1766704
DILUPBiCGStab:  Solving for epsilon, Initial residual = 0.056483053, Final residual = 0.0011391709, No Iterations 1
bounding epsilon, min: -0.038569084 max: 10 average: 0.056178344
DILUPBiCGStab:  Solving for k, Initial residual = 0.050597305, Final residual = 0.0020744688, No Iterations 1
ExecutionTime = 1.23 s  ClockTime = 1 s

volFieldValue fluid write:
    volAverage(fluid) of T = 300.00963

volFieldValue pcb write:
    volAverage(pcb) of T = 300.39814

volFieldValue component_0 write:
    volAverage(component_0) of T = 308.18702

volFieldValue component_1 write:
    volAverage(component_1) of T = 317.77644

volFieldValue component_2 write:
    volAverage(component_2) of T = 311.28635

volFieldValue component_3 write:
    volAverage(component_3) of T = 313.18407

volFieldValue component_4 write:
    volAverage(component_4) of T = 302.10882

Time = 10


Solving for fluid region fluid
DILUPBiCGStab:  Solving for Ux, Initial residual = 0.091771664, Final residual = 0.0016799196, No Iterations 2
DILUPBiCGStab:  Solving for Uy, Initial residual = 0.097471642, Final residual = 0.0017373684, No Iterations 2

Solving energy coupled regions
Using lduPrimitiveAssembly: lduAssembly456789
DILUPBiCGStab:  Solving for h, Initial residual = 0.026102866, Final residual = 0.00033675321, No Iterations 1
limitTemperature=limitT, Type=Lower, LimitedCells=0, CellsPercent=0, Tmin=250, UnlimitedTmin=299.99879
limitTemperature=limitT, Type=Upper, LimitedCells=0, CellsPercent=0, Tmax=6000, UnlimitedTmax=301.00354
limitTemperature=limitT, Type=Lower, LimitedCells=0, CellsPercent=0, Tmin=250, UnlimitedTmin=299.99913
limitTemperature=limitT, Type=Upper, LimitedCells=0, CellsPercent=0, Tmax=6000, UnlimitedTmax=303.72472
limitTemperature=limitT, Type=Lower, LimitedCells=0, CellsPercent=0, Tmin=250, UnlimitedTmin=306.90786
limitTemperature=limitT, Type=Upper, LimitedCells=0, CellsPercent=0, Tmax=600, UnlimitedTmax=309.12016
limitTemperature=limitT, Type=Lower, LimitedCells=0, CellsPercent=0, Tmin=250, UnlimitedTmin=313.38946
limitTemperature=limitT, Type=Upper, LimitedCells=0, CellsPercent=0, Tmax=600, UnlimitedTmax=320.16162
limitTemperature=limitT, Type=Lower, LimitedCells=0, CellsPercent=0, Tmin=250, UnlimitedTmin=310.14844
limitTemperature=limitT, Type=Upper, LimitedCells=0, CellsPercent=0, Tmax=600, UnlimitedTmax=312.43119
limitTemperature=limitT, Type=Lower, LimitedCells=0, CellsPercent=0, Tmin=250, UnlimitedTmin=309.48141
limitTemperature=limitT, Type=Upper, LimitedCells=0, CellsPercent=0, Tmax=600, UnlimitedTmax=315.81015
limitTemperature=limitT, Type=Lower, LimitedCells=0, CellsPercent=0, Tmin=250, UnlimitedTmin=301.71261
limitTemperature=limitT, Type=Upper, LimitedCells=0, CellsPercent=0, Tmax=600, UnlimitedTmax=302.31351
DICPBiCGStab:  Solving for p_rgh, Initial residual = 0.30551532, Final residual = 0.02979212, No Iterations 25
time step continuity errors : sum local = 0.017204391, global = 0.0079128687, cumulative = 0.030004584
Min/max rho:1.1196509 1.1766669
DILUPBiCGStab:  Solving for epsilon, Initial residual = 0.042607075, Final residual = 0.0010153376, No Iterations 1
bounding epsilon, min: -0.03823919 max: 10 average: 0.04798616
DILUPBiCGStab:  Solving for k, Initial residual = 0.034182038, Final residual = 0.0014384528, No Iterations 1
ExecutionTime = 1.31 s  ClockTime = 1 s

volFieldValue fluid write:
    volAverage(fluid) of T = 300.0117

volFieldValue pcb write:
    volAverage(pcb) of T = 300.47548

volFieldValue component_0 write:
    volAverage(component_0) of T = 309.03537

volFieldValue component_1 write:
    volAverage(component_1) of T = 319.61685

volFieldValue component_2 write:
    volAverage(component_2) of T = 312.45937

volFieldValue component_3 write:
    volAverage(component_3) of T = 314.50237

volFieldValue component_4 write:
    volAverage(component_4) of T = 302.32946

Time = 11


Solving for fluid region fluid
DILUPBiCGStab:  Solving for Ux, Initial residual = 0.091911882, Final residual = 0.0017899591, No Iterations 2
DILUPBiCGStab:  Solving for Uy, Initial residual = 0.060572701, Final residual = 0.0011879052, No Iterations 2

Solving energy coupled regions
Using lduPrimitiveAssembly: lduAssembly456789
DILUPBiCGStab:  Solving for h, Initial residual = 0.026660919, Final residual = 0.00036296313, No Iterations 1
limitTemperature=limitT, Type=Lower, LimitedCells=0, CellsPercent=0, Tmin=250, UnlimitedTmin=299.99871
limitTemperature=limitT, Type=Upper, LimitedCells=0, CellsPercent=0, Tmax=6000, UnlimitedTmax=301.15485
limitTemperature=limitT, Type=Lower, LimitedCells=0, CellsPercent=0, Tmin=250, UnlimitedTmin=299.99908
limitTemperature=limitT, Type=Upper, LimitedCells=0, CellsPercent=0, Tmax=6000, UnlimitedTmax=304.41829
limitTemperature=limitT, Type=Lower, LimitedCells=0, CellsPercent=0, Tmin=250, UnlimitedTmin=307.61797
limitTemperature=limitT, Type=Upper, LimitedCells=0, CellsPercent=0, Tmax=600, UnlimitedTmax=310.03494
limitTemperature=limitT, Type=Lower, LimitedCells=0, CellsPercent=0, Tmin=250, UnlimitedTmin=314.6267
limitTemperature=limitT, Type=Upper, LimitedCells=0, CellsPercent=0, Tmax=600, UnlimitedTmax=322.19184
limitTemperature=limitT, Type=Lower, LimitedCells=0, CellsPercent=0, Tmin=250, UnlimitedTmin=311.30258
limitTemperature=limitT, Type=Upper, LimitedCells=0, CellsPercent=0, Tmax=600, UnlimitedTmax=313.65158
limitTemperature=limitT, Type=Lower, LimitedCells=0, CellsPercent=0, Tmin=250, UnlimitedTmin=310.36632
limitTemperature=limitT, Type=Upper, LimitedCells=0, CellsPercent=0, Tmax=600, UnlimitedTmax=317.31759
limitTemperature=limitT, Type=Lower, LimitedCells=0, CellsPercent=0, Tmin=250, UnlimitedTmin=301.89123
limitTemperature=limitT, Type=Upper, LimitedCells=0, CellsPercent=0, Tmax=600, UnlimitedTmax=302.5541
DICPBiCGStab:  Solving for p_rgh, Initial residual = 0.29649958, Final residual = 0.028509618, No Iterations 26
time step continuity errors : sum local = 0.017547617, global = 0.0051084185, cumulative = 0.035113003
Min/max rho:1.1135404 1.1766606
DILUPBiCGStab:  Solving for epsilon, Initial residual = 0.037226092, Final residual = 0.00090555746, No Iterations 1
bounding epsilon, min: -0.037897851 max: 10 average: 0.042395016
DILUPBiCGStab:  Solving for k, Initial residual = 0.024080997, Final residual = 0.001033583, No Iterations 1
ExecutionTime = 1.4 s  ClockTime = 1 s

volFieldValue fluid write:
    volAverage(fluid) of T = 300.01389

volFieldValue pcb write:
    volAverage(pcb) of T = 300.55843

volFieldValue component_0 write:
    volAverage(component_0) of T = 309.86019

volFieldValue component_1 write:
    volAverage(component_1) of T = 321.4441

volFieldValue component_2 write:
    volAverage(component_2) of T = 313.61157

volFieldValue component_3 write:
    volAverage(component_3) of T = 315.80527

volFieldValue component_4 write:
    volAverage(component_4) of T = 302.54877

Time = 12


Solving for fluid region fluid
DILUPBiCGStab:  Solving for Ux, Initial residual = 0.1077825, Final residual = 0.0018758333, No Iterations 2
DILUPBiCGStab:  Solving for Uy, Initial residual = 0.062362667, Final residual = 0.0014431068, No Iterations 2

Solving energy coupled regions
Using lduPrimitiveAssembly: lduAssembly456789
DILUPBiCGStab:  Solving for h, Initial residual = 0.026695416, Final residual = 0.00035785307, No Iterations 1
limitTemperature=limitT, Type=Lower, LimitedCells=0, CellsPercent=0, Tmin=250, UnlimitedTmin=299.99892
limitTemperature=limitT, Type=Upper, LimitedCells=0, CellsPercent=0, Tmax=6000, UnlimitedTmax=301.33987
limitTemperature=limitT, Type=Lower, LimitedCells=0, CellsPercent=0, Tmin=250, UnlimitedTmin=299.99914
limitTemperature=limitT, Type=Upper, LimitedCells=0, CellsPercent=0, Tmax=6000, UnlimitedTmax=305.15362
limitTemperature=limitT, Type=Lower, LimitedCells=0, CellsPercent=0, Tmin=250, UnlimitedTmin=308.32854
limitTemperature=limitT, Type=Upper, LimitedCells=0, CellsPercent=0, Tmax=600, UnlimitedTmax=310.93776
limitTemperature=limitT, Type=Lower, LimitedCells=0, CellsPercent=0, Tmin=250, UnlimitedTmin=315.90104
limitTemperature=limitT, Type=Upper, LimitedCells=0, CellsPercent=0, Tmax=600, UnlimitedTmax=324.19972
limitTemperature=limitT, Type=Lower, LimitedCells=0, CellsPercent=0, Tmin=250, UnlimitedTmin=312.36683
limitTemperature=limitT, Type=Upper, LimitedCells=0, CellsPercent=0, Tmax=600, UnlimitedTmax=314.85725
limitTemperature=limitT, Type=Lower, LimitedCells=0, CellsPercent=0, Tmin=250, UnlimitedTmin=311.19926
limitTemperature=limitT, Type=Upper, LimitedCells=0, CellsPercent=0, Tmax=600, UnlimitedTmax=318.79844
limitTemperature=limitT, Type=Lower, LimitedCells=0, CellsPercent=0, Tmin=250, UnlimitedTmin=302.05799
limitTemperature=limitT, Type=Upper, LimitedCells=0, CellsPercent=0, Tmax=600, UnlimitedTmax=302.79318
DICPBiCGStab:  Solving for p_rgh, Initial residual = 0.26234504, Final residual = 0.026178658, No Iterations 37
time step continuity errors : sum local = 0.017011095, global = -0.0047759386, cumulative = 0.030337064
Min/max rho:1.1075852 1.1766557
DILUPBiCGStab:  Solving for epsilon, Initial residual = 0.033171174, Final residual = 0.00072272073, No Iterations 1
bounding epsilon, min: -0.037404305 max: 10 average: 0.038316293
DILUPBiCGStab:  Solving for k, Initial residual = 0.017200486, Final residual = 0.00075227283, No Iterations 1
ExecutionTime = 1.51 s  ClockTime = 1 s

volFieldValue fluid write:
    volAverage(fluid) of T = 300.01639

volFieldValue pcb write:
    volAverage(pcb) of T = 300.64659

volFieldValue component_0 write:
    volAverage(component_0) of T = 310.66556

volFieldValue component_1 write:
    volAverage(component_1) of T = 323.25839

volFieldValue component_2 write:
    volAverage(component_2) of T = 314.74803

volFieldValue component_3 write:
    volAverage(component_3) of T = 317.10481

volFieldValue component_4 write:
    volAverage(component_4) of T = 302.76703

Time = 13


Solving for fluid region fluid
DILUPBiCGStab:  Solving for Ux, Initial residual = 0.13402615, Final residual = 0.0019020876, No Iterations 2
DILUPBiCGStab:  Solving for Uy, Initial residual = 0.074346801, Final residual = 0.0014836006, No Iterations 2

Solving energy coupled regions
Using lduPrimitiveAssembly: lduAssembly456789
DILUPBiCGStab:  Solving for h, Initial residual = 0.026757551, Final residual = 0.00035810659, No Iterations 1
limitTemperature=limitT, Type=Lower, LimitedCells=0, CellsPercent=0, Tmin=250, UnlimitedTmin=299.99924
limitTemperature=limitT, Type=Upper, LimitedCells=0, CellsPercent=0, Tmax=6000, UnlimitedTmax=301.31122
limitTemperature=limitT, Type=Lower, LimitedCells=0, CellsPercent=0, Tmin=250, UnlimitedTmin=299.99935
limitTemperature=limitT, Type=Upper, LimitedCells=0, CellsPercent=0, Tmax=6000, UnlimitedTmax=305.92744
limitTemperature=limitT, Type=Lower, LimitedCells=0, CellsPercent=0, Tmin=250, UnlimitedTmin=309.03186
limitTemperature=limitT, Type=Upper, LimitedCells=0, CellsPercent=0, Tmax=600, UnlimitedTmax=311.82911
limitTemperature=limitT, Type=Lower, LimitedCells=0, CellsPercent=0, Tmin=250, UnlimitedTmin=317.29677
limitTemperature=limitT, Type=Upper, LimitedCells=0, CellsPercent=0, Tmax=600, UnlimitedTmax=326.18657
limitTemperature=limitT, Type=Lower, LimitedCells=0, CellsPercent=0, Tmin=250, UnlimitedTmin=313.38241
limitTemperature=limitT, Type=Upper, LimitedCells=0, CellsPercent=0, Tmax=600, UnlimitedTmax=316.04841
limitTemperature=limitT, Type=Lower, LimitedCells=0, CellsPercent=0, Tmin=250, UnlimitedTmin=312.08917
limitTemperature=limitT, Type=Upper, LimitedCells=0, CellsPercent=0, Tmax=600, UnlimitedTmax=320.25724
limitTemperature=limitT, Type=Lower, LimitedCells=0, CellsPercent=0, Tmin=250, UnlimitedTmin=302.22222
limitTemperature=limitT, Type=Upper, LimitedCells=0, CellsPercent=0, Tmax=600, UnlimitedTmax=303.03077
DICPBiCGStab:  Solving for p_rgh, Initial residual = 0.18632445, Final residual = 0.017787869, No Iterations 33
time step continuity errors : sum local = 0.012968842, global = -0.0031751927, cumulative = 0.027161872
Min/max rho:1.1017614 1.1766558
DILUPBiCGStab:  Solving for epsilon, Initial residual = 0.033380052, Final residual = 0.00064999623, No Iterations 1
bounding epsilon, min: -0.039606014 max: 10 average: 0.035358161
DILUPBiCGStab:  Solving for k, Initial residual = 0.012955488, Final residual = 0.00058317974, No Iterations 1
ExecutionTime = 1.55 s  ClockTime = 1 s

volFieldValue fluid write:
    volAverage(fluid) of T = 300.01885

volFieldValue pcb write:
    volAverage(pcb) of T = 300.73989

volFieldValue component_0 write:
    volAverage(component_0) of T = 311.45456

volFieldValue component_1 write:
    volAverage(component_1) of T = 325.06

volFieldValue component_2 write:
    volAverage(component_2) of T = 315.87021

volFieldValue component_3 write:
    volAverage(component_3) of T = 318.39911

volFieldValue component_4 write:
    volAverage(component_4) of T = 302.98404

Time = 14


Solving for fluid region fluid
DILUPBiCGStab:  Solving for Ux, Initial residual = 0.14808366, Final residual = 0.0020916689, No Iterations 2
DILUPBiCGStab:  Solving for Uy, Initial residual = 0.078599053, Final residual = 0.0016581521, No Iterations 2

Solving energy coupled regions
Using lduPrimitiveAssembly: lduAssembly456789
DILUPBiCGStab:  Solving for h, Initial residual = 0.026885235, Final residual = 0.00035802094, No Iterations 1
limitTemperature=limitT, Type=Lower, LimitedCells=0, CellsPercent=0, Tmin=250, UnlimitedTmin=299.99916
limitTemperature=limitT, Type=Upper, LimitedCells=0, CellsPercent=0, Tmax=6000, UnlimitedTmax=301.59362
limitTemperature=limitT, Type=Lower, LimitedCells=0, CellsPercent=0, Tmin=250, UnlimitedTmin=299.99937
limitTemperature=limitT, Type=Upper, LimitedCells=0, CellsPercent=0, Tmax=6000, UnlimitedTmax=306.73714
limitTemperature=limitT, Type=Lower, LimitedCells=0, CellsPercent=0, Tmin=250, UnlimitedTmin=309.66395
limitTemperature=limitT, Type=Upper, LimitedCells=0, CellsPercent=0, Tmax=600, UnlimitedTmax=312.70905
limitTemperature=limitT, Type=Lower, LimitedCells=0, CellsPercent=0, Tmin=250, UnlimitedTmin=318.59287
limitTemperature=limitT, Type=Upper, LimitedCells=0, CellsPercent=0, Tmax=600, UnlimitedTmax=328.15303
limitTemperature=limitT, Type=Lower, LimitedCells=0, CellsPercent=0, Tmin=250, UnlimitedTmin=314.39641
limitTemperature=limitT, Type=Upper, LimitedCells=0, CellsPercent=0, Tmax=600, UnlimitedTmax=317.22595
limitTemperature=limitT, Type=Lower, LimitedCells=0, CellsPercent=0, Tmin=250, UnlimitedTmin=313.05119
limitTemperature=limitT, Type=Upper, LimitedCells=0, CellsPercent=0, Tmax=600, UnlimitedTmax=321.69795
limitTemperature=limitT, Type=Lower, LimitedCells=0, CellsPercent=0, Tmin=250, UnlimitedTmin=302.39588
limitTemperature=limitT, Type=Upper, LimitedCells=0, CellsPercent=0, Tmax=600, UnlimitedTmax=303.26688
DICPBiCGStab:  Solving for p_rgh, Initial residual = 0.17124785, Final residual = 0.016642889, No Iterations 49
time step continuity errors : sum local = 0.011337447, global = -0.0064277675, cumulative = 0.020734104
Min/max rho:1.0960234 1.1766559
DILUPBiCGStab:  Solving for epsilon, Initial residual = 0.024068232, Final residual = 0.00060675453, No Iterations 1
bounding epsilon, min: -0.039939939 max: 10 average: 0.032952134
DILUPBiCGStab:  Solving for k, Initial residual = 0.01058325, Final residual = 0.0004828902, No Iterations 1
ExecutionTime = 1.64 s  ClockTime = 1 s

volFieldValue fluid write:
    volAverage(fluid) of T = 300.02125

volFieldValue pcb write:
    volAverage(pcb) of T = 300.83756

volFieldValue component_0 write:
    volAverage(component_0) of T = 312.22998

volFieldValue component_1 write:
    volAverage(component_1) of T = 326.85532

volFieldValue component_2 write:
    volAverage(component_2) of T = 316.98441

volFieldValue component_3 write:
    volAverage(component_3) of T = 319.69026

volFieldValue component_4 write:
    volAverage(component_4) of T = 303.20099

Time = 15


Solving for fluid region fluid
DILUPBiCGStab:  Solving for Ux, Initial residual = 0.10812049, Final residual = 0.0016427606, No Iterations 2
DILUPBiCGStab:  Solving for Uy, Initial residual = 0.067957571, Final residual = 0.0014822929, No Iterations 2

Solving energy coupled regions
Using lduPrimitiveAssembly: lduAssembly456789
DILUPBiCGStab:  Solving for h, Initial residual = 0.026788618, Final residual = 0.0003599169, No Iterations 1
limitTemperature=limitT, Type=Lower, LimitedCells=0, CellsPercent=0, Tmin=250, UnlimitedTmin=299.99913
limitTemperature=limitT, Type=Upper, LimitedCells=0, CellsPercent=0, Tmax=6000, UnlimitedTmax=301.6207
limitTemperature=limitT, Type=Lower, LimitedCells=0, CellsPercent=0, Tmin=250, UnlimitedTmin=299.99935
limitTemperature=limitT, Type=Upper, LimitedCells=0, CellsPercent=0, Tmax=6000, UnlimitedTmax=307.58017
limitTemperature=limitT, Type=Lower, LimitedCells=0, CellsPercent=0, Tmin=250, UnlimitedTmin=310.18376
limitTemperature=limitT, Type=Upper, LimitedCells=0, CellsPercent=0, Tmax=600, UnlimitedTmax=313.57736
limitTemperature=limitT, Type=Lower, LimitedCells=0, CellsPercent=0, Tmin=250, UnlimitedTmin=320.00411
limitTemperature=limitT, Type=Upper, LimitedCells=0, CellsPercent=0, Tmax=600, UnlimitedTmax=330.09995
limitTemperature=limitT, Type=Lower, LimitedCells=0, CellsPercent=0, Tmin=250, UnlimitedTmin=315.4102
limitTemperature=limitT, Type=Upper, LimitedCells=0, CellsPercent=0, Tmax=600, UnlimitedTmax=318.39085
limitTemperature=limitT, Type=Lower, LimitedCells=0, CellsPercent=0, Tmin=250, UnlimitedTmin=313.98487
limitTemperature=limitT, Type=Upper, LimitedCells=0, CellsPercent=0, Tmax=600, UnlimitedTmax=323.12372
limitTemperature=limitT, Type=Lower, LimitedCells=0, CellsPercent=0, Tmin=250, UnlimitedTmin=302.56808
limitTemperature=limitT, Type=Upper, LimitedCells=0, CellsPercent=0, Tmax=600, UnlimitedTmax=303.50157
DICPBiCGStab:  Solving for p_rgh, Initial residual = 0.21174826, Final residual = 0.019908865, No Iterations 72
time step continuity errors : sum local = 0.012567722, global = 0.0072879366, cumulative = 0.028022041
Min/max rho:1.0901099 1.176656
DILUPBiCGStab:  Solving for epsilon, Initial residual = 0.031928669, Final residual = 0.00058229415, No Iterations 1
bounding epsilon, min: -0.043909797 max: 10 average: 0.031374131
DILUPBiCGStab:  Solving for k, Initial residual = 0.0090339783, Final residual = 0.00042376195, No Iterations 1
ExecutionTime = 1.8 s  ClockTime = 2 s

volFieldValue fluid write:
    volAverage(fluid) of T = 300.02405

volFieldValue pcb write:
    volAverage(pcb) of T = 300.94006

volFieldValue component_0 write:
    volAverage(component_0) of T = 313.00485

volFieldValue component_1 write:
    volAverage(component_1) of T = 328.63727

volFieldValue component_2 write:
    volAverage(component_2) of T = 318.08868

volFieldValue component_3 write:
    volAverage(component_3) of T = 320.98096

volFieldValue component_4 write:
    volAverage(component_4) of T = 303.41795

Time = 16


Solving for fluid region fluid
DILUPBiCGStab:  Solving for Ux, Initial residual = 0.081702425, Final residual = 0.0027362346, No Iterations 2
DILUPBiCGStab:  Solving for Uy, Initial residual = 0.065042465, Final residual = 0.0013952352, No Iterations 2

Solving energy coupled regions
Using lduPrimitiveAssembly: lduAssembly456789
DILUPBiCGStab:  Solving for h, Initial residual = 0.02697942, Final residual = 0.00038163515, No Iterations 1
limitTemperature=limitT, Type=Lower, LimitedCells=0, CellsPercent=0, Tmin=250, UnlimitedTmin=299.99946
limitTemperature=limitT, Type=Upper, LimitedCells=0, CellsPercent=0, Tmax=6000, UnlimitedTmax=301.93024
limitTemperature=limitT, Type=Lower, LimitedCells=0, CellsPercent=0, Tmin=250, UnlimitedTmin=299.99943
limitTemperature=limitT, Type=Upper, LimitedCells=0, CellsPercent=0, Tmax=6000, UnlimitedTmax=308.45415
limitTemperature=limitT, Type=Lower, LimitedCells=0, CellsPercent=0, Tmin=250, UnlimitedTmin=310.72755
limitTemperature=limitT, Type=Upper, LimitedCells=0, CellsPercent=0, Tmax=600, UnlimitedTmax=314.43404
limitTemperature=limitT, Type=Lower, LimitedCells=0, CellsPercent=0, Tmin=250, UnlimitedTmin=321.25023
limitTemperature=limitT, Type=Upper, LimitedCells=0, CellsPercent=0, Tmax=600, UnlimitedTmax=332.02923
limitTemperature=limitT, Type=Lower, LimitedCells=0, CellsPercent=0, Tmin=250, UnlimitedTmin=316.46121
limitTemperature=limitT, Type=Upper, LimitedCells=0, CellsPercent=0, Tmax=600, UnlimitedTmax=319.54391
limitTemperature=limitT, Type=Lower, LimitedCells=0, CellsPercent=0, Tmin=250, UnlimitedTmin=314.84973
limitTemperature=limitT, Type=Upper, LimitedCells=0, CellsPercent=0, Tmax=600, UnlimitedTmax=324.53752
limitTemperature=limitT, Type=Lower, LimitedCells=0, CellsPercent=0, Tmin=250, UnlimitedTmin=302.74133
limitTemperature=limitT, Type=Upper, LimitedCells=0, CellsPercent=0, Tmax=600, UnlimitedTmax=303.73496
DICPBiCGStab:  Solving for p_rgh, Initial residual = 0.31386603, Final residual = 0.031325606, No Iterations 25
time step continuity errors : sum local = 0.01308629, global = -0.013029482, cumulative = 0.014992558
Min/max rho:1.083947 1.1766665
DILUPBiCGStab:  Solving for epsilon, Initial residual = 0.021447004, Final residual = 0.00049729361, No Iterations 1
bounding epsilon, min: -0.040949974 max: 10 average: 0.029880642
DILUPBiCGStab:  Solving for k, Initial residual = 0.0094244184, Final residual = 0.00040880632, No Iterations 1
ExecutionTime = 1.89 s  ClockTime = 2 s

volFieldValue fluid write:
    volAverage(fluid) of T = 300.0264

volFieldValue pcb write:
    volAverage(pcb) of T = 301.04675

volFieldValue component_0 write:
    volAverage(component_0) of T = 313.77979

volFieldValue component_1 write:
    volAverage(component_1) of T = 330.39444

volFieldValue component_2 write:
    volAverage(component_2) of T = 319.17977

volFieldValue component_3 write:
    volAverage(component_3) of T = 322.24028

volFieldValue component_4 write:
    volAverage(component_4) of T = 303.63092

Time = 17


Solving for fluid region fluid
DILUPBiCGStab:  Solving for Ux, Initial residual = 0.098374375, Final residual = 0.0027449792, No Iterations 2
DILUPBiCGStab:  Solving for Uy, Initial residual = 0.050084714, Final residual = 0.00096492788, No Iterations 2

Solving energy coupled regions
Using lduPrimitiveAssembly: lduAssembly456789
DILUPBiCGStab:  Solving for h, Initial residual = 0.026327901, Final residual = 0.00036108908, No Iterations 1
limitTemperature=limitT, Type=Lower, LimitedCells=0, CellsPercent=0, Tmin=250, UnlimitedTmin=299.99935
limitTemperature=limitT, Type=Upper, LimitedCells=0, CellsPercent=0, Tmax=6000, UnlimitedTmax=302.06615
limitTemperature=limitT, Type=Lower, LimitedCells=0, CellsPercent=0, Tmin=250, UnlimitedTmin=299.99952
limitTemperature=limitT, Type=Upper, LimitedCells=0, CellsPercent=0, Tmax=6000, UnlimitedTmax=309.35715
limitTemperature=limitT, Type=Lower, LimitedCells=0, CellsPercent=0, Tmin=250, UnlimitedTmin=311.31827
limitTemperature=limitT, Type=Upper, LimitedCells=0, CellsPercent=0, Tmax=600, UnlimitedTmax=315.27938
limitTemperature=limitT, Type=Lower, LimitedCells=0, CellsPercent=0, Tmin=250, UnlimitedTmin=322.23037
limitTemperature=limitT, Type=Upper, LimitedCells=0, CellsPercent=0, Tmax=600, UnlimitedTmax=333.94266
limitTemperature=limitT, Type=Lower, LimitedCells=0, CellsPercent=0, Tmin=250, UnlimitedTmin=317.47748
limitTemperature=limitT, Type=Upper, LimitedCells=0, CellsPercent=0, Tmax=600, UnlimitedTmax=320.68573
limitTemperature=limitT, Type=Lower, LimitedCells=0, CellsPercent=0, Tmin=250, UnlimitedTmin=315.70994
limitTemperature=limitT, Type=Upper, LimitedCells=0, CellsPercent=0, Tmax=600, UnlimitedTmax=325.94074
limitTemperature=limitT, Type=Lower, LimitedCells=0, CellsPercent=0, Tmin=250, UnlimitedTmin=302.91701
limitTemperature=limitT, Type=Upper, LimitedCells=0, CellsPercent=0, Tmax=600, UnlimitedTmax=303.96707
DICPBiCGStab:  Solving for p_rgh, Initial residual = 0.22996715, Final residual = 0.022518218, No Iterations 44
time step continuity errors : sum local = 0.012296845, global = -0.00047010765, cumulative = 0.014522451
Min/max rho:1.077975 1.1766891
DILUPBiCGStab:  Solving for epsilon, Initial residual = 0.030783337, Final residual = 0.00057758826, No Iterations 1
bounding epsilon, min: -0.041036591 max: 10 average: 0.02918875
DILUPBiCGStab:  Solving for k, Initial residual = 0.0072473989, Final residual = 6.39762e-05, No Iterations 2
ExecutionTime = 1.99 s  ClockTime = 2 s

volFieldValue fluid write:
    volAverage(fluid) of T = 300.02951

volFieldValue pcb write:
    volAverage(pcb) of T = 301.1588

volFieldValue component_0 write:
    volAverage(component_0) of T = 314.5511

volFieldValue component_1 write:
    volAverage(component_1) of T = 332.11793

volFieldValue component_2 write:
    volAverage(component_2) of T = 320.26818

volFieldValue component_3 write:
    volAverage(component_3) of T = 323.47729

volFieldValue component_4 write:
    volAverage(component_4) of T = 303.83945

Time = 18


Solving for fluid region fluid
DILUPBiCGStab:  Solving for Ux, Initial residual = 0.094261491, Final residual = 0.0015459661, No Iterations 2
DILUPBiCGStab:  Solving for Uy, Initial residual = 0.048808, Final residual = 0.00089831708, No Iterations 2

Solving energy coupled regions
Using lduPrimitiveAssembly: lduAssembly456789
DILUPBiCGStab:  Solving for h, Initial residual = 0.025970021, Final residual = 0.00037841945, No Iterations 1
limitTemperature=limitT, Type=Lower, LimitedCells=0, CellsPercent=0, Tmin=250, UnlimitedTmin=299.99936
limitTemperature=limitT, Type=Upper, LimitedCells=0, CellsPercent=0, Tmax=6000, UnlimitedTmax=302.80318
limitTemperature=limitT, Type=Lower, LimitedCells=0, CellsPercent=0, Tmin=250, UnlimitedTmin=299.99957
limitTemperature=limitT, Type=Upper, LimitedCells=0, CellsPercent=0, Tmax=6000, UnlimitedTmax=310.28626
limitTemperature=limitT, Type=Lower, LimitedCells=0, CellsPercent=0, Tmin=250, UnlimitedTmin=311.9676
limitTemperature=limitT, Type=Upper, LimitedCells=0, CellsPercent=0, Tmax=600, UnlimitedTmax=316.11446
limitTemperature=limitT, Type=Lower, LimitedCells=0, CellsPercent=0, Tmin=250, UnlimitedTmin=322.75856
limitTemperature=limitT, Type=Upper, LimitedCells=0, CellsPercent=0, Tmax=600, UnlimitedTmax=335.84121
limitTemperature=limitT, Type=Lower, LimitedCells=0, CellsPercent=0, Tmin=250, UnlimitedTmin=318.418
limitTemperature=limitT, Type=Upper, LimitedCells=0, CellsPercent=0, Tmax=600, UnlimitedTmax=321.8162
limitTemperature=limitT, Type=Lower, LimitedCells=0, CellsPercent=0, Tmin=250, UnlimitedTmin=316.6557
limitTemperature=limitT, Type=Upper, LimitedCells=0, CellsPercent=0, Tmax=600, UnlimitedTmax=327.33231
limitTemperature=limitT, Type=Lower, LimitedCells=0, CellsPercent=0, Tmin=250, UnlimitedTmin=303.08944
limitTemperature=limitT, Type=Upper, LimitedCells=0, CellsPercent=0, Tmax=600, UnlimitedTmax=304.19808
DICPBiCGStab:  Solving for p_rgh, Initial residual = 0.21865294, Final residual = 0.019782569, No Iterations 42
time step continuity errors : sum local = 0.010265613, global = -0.0024686402, cumulative = 0.012053811
Min/max rho:1.0722493 1.1767004
DILUPBiCGStab:  Solving for epsilon, Initial residual = 0.025203409, Final residual = 0.00056631451, No Iterations 1
bounding epsilon, min: -0.039697971 max: 10 average: 0.028432291
DILUPBiCGStab:  Solving for k, Initial residual = 0.0066938851, Final residual = 0.00032186683, No Iterations 1
ExecutionTime = 2.09 s  ClockTime = 2 s

volFieldValue fluid write:
    volAverage(fluid) of T = 300.03217

volFieldValue pcb write:
    volAverage(pcb) of T = 301.27501

volFieldValue component_0 write:
    volAverage(component_0) of T = 315.30095

volFieldValue component_1 write:
    volAverage(component_1) of T = 333.79914

volFieldValue component_2 write:
    volAverage(component_2) of T = 321.3448

volFieldValue component_3 write:
    volAverage(component_3) of T = 324.69187

volFieldValue component_4 write:
    volAverage(component_4) of T = 304.04668

Time = 19


Solving for fluid region fluid
DILUPBiCGStab:  Solving for Ux, Initial residual = 0.064446954, Final residual = 0.00096789509, No Iterations 2
DILUPBiCGStab:  Solving for Uy, Initial residual = 0.043625194, Final residual = 0.00079737547, No Iterations 2

Solving energy coupled regions
Using lduPrimitiveAssembly: lduAssembly456789
DILUPBiCGStab:  Solving for h, Initial residual = 0.025046105, Final residual = 0.00035076645, No Iterations 1
limitTemperature=limitT, Type=Lower, LimitedCells=0, CellsPercent=0, Tmin=250, UnlimitedTmin=299.9994
limitTemperature=limitT, Type=Upper, LimitedCells=0, CellsPercent=0, Tmax=6000, UnlimitedTmax=302.39893
limitTemperature=limitT, Type=Lower, LimitedCells=0, CellsPercent=0, Tmin=250, UnlimitedTmin=299.99958
limitTemperature=limitT, Type=Upper, LimitedCells=0, CellsPercent=0, Tmax=6000, UnlimitedTmax=311.2409
limitTemperature=limitT, Type=Lower, LimitedCells=0, CellsPercent=0, Tmin=250, UnlimitedTmin=312.4729
limitTemperature=limitT, Type=Upper, LimitedCells=0, CellsPercent=0, Tmax=600, UnlimitedTmax=316.94051
limitTemperature=limitT, Type=Lower, LimitedCells=0, CellsPercent=0, Tmin=250, UnlimitedTmin=322.74928
limitTemperature=limitT, Type=Upper, LimitedCells=0, CellsPercent=0, Tmax=600, UnlimitedTmax=337.72295
limitTemperature=limitT, Type=Lower, LimitedCells=0, CellsPercent=0, Tmin=250, UnlimitedTmin=319.37381
limitTemperature=limitT, Type=Upper, LimitedCells=0, CellsPercent=0, Tmax=600, UnlimitedTmax=322.93586
limitTemperature=limitT, Type=Lower, LimitedCells=0, CellsPercent=0, Tmin=250, UnlimitedTmin=317.64907
limitTemperature=limitT, Type=Upper, LimitedCells=0, CellsPercent=0, Tmax=600, UnlimitedTmax=328.71001
limitTemperature=limitT, Type=Lower, LimitedCells=0, CellsPercent=0, Tmin=250, UnlimitedTmin=303.26493
limitTemperature=limitT, Type=Upper, LimitedCells=0, CellsPercent=0, Tmax=600, UnlimitedTmax=304.4278
DICPBiCGStab:  Solving for p_rgh, Initial residual = 0.17706074, Final residual = 0.013870684, No Iterations 38
time step continuity errors : sum local = 0.0075390745, global = -0.0019604307, cumulative = 0.01009338
Min/max rho:1.0667941 1.1767029
DILUPBiCGStab:  Solving for epsilon, Initial residual = 0.027916575, Final residual = 0.00050167892, No Iterations 1
bounding epsilon, min: -0.038302458 max: 10 average: 0.027872915
DILUPBiCGStab:  Solving for k, Initial residual = 0.0055153499, Final residual = 0.00026384982, No Iterations 1
ExecutionTime = 2.14 s  ClockTime = 2 s

volFieldValue fluid write:
    volAverage(fluid) of T = 300.03507

volFieldValue pcb write:
    volAverage(pcb) of T = 301.39541

volFieldValue component_0 write:
    volAverage(component_0) of T = 316.03837

volFieldValue component_1 write:
    volAverage(component_1) of T = 335.44761

volFieldValue component_2 write:
    volAverage(component_2) of T = 322.40935

volFieldValue component_3 write:
    volAverage(component_3) of T = 325.88947

volFieldValue component_4 write:
    volAverage(component_4) of T = 304.25219

Time = 20


Solving for fluid region fluid
DILUPBiCGStab:  Solving for Ux, Initial residual = 0.045699558, Final residual = 0.00078898549, No Iterations 2
DILUPBiCGStab:  Solving for Uy, Initial residual = 0.041115163, Final residual = 0.00082743437, No Iterations 2

Solving energy coupled regions
Using lduPrimitiveAssembly: lduAssembly456789
DILUPBiCGStab:  Solving for h, Initial residual = 0.024490411, Final residual = 0.00035213714, No Iterations 1
limitTemperature=limitT, Type=Lower, LimitedCells=0, CellsPercent=0, Tmin=250, UnlimitedTmin=299.99943
limitTemperature=limitT, Type=Upper, LimitedCells=0, CellsPercent=0, Tmax=6000, UnlimitedTmax=302.48779
limitTemperature=limitT, Type=Lower, LimitedCells=0, CellsPercent=0, Tmin=250, UnlimitedTmin=299.99959
limitTemperature=limitT, Type=Upper, LimitedCells=0, CellsPercent=0, Tmax=6000, UnlimitedTmax=312.21765
limitTemperature=limitT, Type=Lower, LimitedCells=0, CellsPercent=0, Tmin=250, UnlimitedTmin=312.84621
limitTemperature=limitT, Type=Upper, LimitedCells=0, CellsPercent=0, Tmax=600, UnlimitedTmax=317.75874
limitTemperature=limitT, Type=Lower, LimitedCells=0, CellsPercent=0, Tmin=250, UnlimitedTmin=322.79393
limitTemperature=limitT, Type=Upper, LimitedCells=0, CellsPercent=0, Tmax=600, UnlimitedTmax=339.58894
limitTemperature=limitT, Type=Lower, LimitedCells=0, CellsPercent=0, Tmin=250, UnlimitedTmin=320.29392
limitTemperature=limitT, Type=Upper, LimitedCells=0, CellsPercent=0, Tmax=600, UnlimitedTmax=324.04428
limitTemperature=limitT, Type=Lower, LimitedCells=0, CellsPercent=0, Tmin=250, UnlimitedTmin=318.60461
limitTemperature=limitT, Type=Upper, LimitedCells=0, CellsPercent=0, Tmax=600, UnlimitedTmax=330.07327
limitTemperature=limitT, Type=Lower, LimitedCells=0, CellsPercent=0, Tmin=250, UnlimitedTmin=303.42542
limitTemperature=limitT, Type=Upper, LimitedCells=0, CellsPercent=0, Tmax=600, UnlimitedTmax=304.65635
DICPBiCGStab:  Solving for p_rgh, Initial residual = 0.17850442, Final residual = 0.014411304, No Iterations 29
time step continuity errors : sum local = 0.0076266421, global = 0.0012914439, cumulative = 0.011384824
Min/max rho:1.0615952 1.1766996
DILUPBiCGStab:  Solving for epsilon, Initial residual = 0.027985066, Final residual = 0.00046605098, No Iterations 1
bounding epsilon, min: -0.037922816 max: 10 average: 0.027229883
DILUPBiCGStab:  Solving for k, Initial residual = 0.0055121389, Final residual = 0.00023189191, No Iterations 1
ExecutionTime = 2.29 s  ClockTime = 2 s

volFieldValue fluid write:
    volAverage(fluid) of T = 300.03797

volFieldValue pcb write:
    volAverage(pcb) of T = 301.51927

volFieldValue component_0 write:
    volAverage(component_0) of T = 316.75097

volFieldValue component_1 write:
    volAverage(component_1) of T = 337.07556

volFieldValue component_2 write:
    volAverage(component_2) of T = 323.45731

volFieldValue component_3 write:
    volAverage(component_3) of T = 327.07334

volFieldValue component_4 write:
    volAverage(component_4) of T = 304.45675

Time = 21


Solving for fluid region fluid
DILUPBiCGStab:  Solving for Ux, Initial residual = 0.040748427, Final residual = 0.00063258129, No Iterations 2
DILUPBiCGStab:  Solving for Uy, Initial residual = 0.036600937, Final residual = 0.0007578771, No Iterations 2

Solving energy coupled regions
Using lduPrimitiveAssembly: lduAssembly456789
DILUPBiCGStab:  Solving for h, Initial residual = 0.023890933, Final residual = 0.00034538474, No Iterations 1
limitTemperature=limitT, Type=Lower, LimitedCells=0, CellsPercent=0, Tmin=250, UnlimitedTmin=299.99944
limitTemperature=limitT, Type=Upper, LimitedCells=0, CellsPercent=0, Tmax=6000, UnlimitedTmax=303.09649
limitTemperature=limitT, Type=Lower, LimitedCells=0, CellsPercent=0, Tmin=250, UnlimitedTmin=299.99959
limitTemperature=limitT, Type=Upper, LimitedCells=0, CellsPercent=0, Tmax=6000, UnlimitedTmax=313.21562
limitTemperature=limitT, Type=Lower, LimitedCells=0, CellsPercent=0, Tmin=250, UnlimitedTmin=313.00703
limitTemperature=limitT, Type=Upper, LimitedCells=0, CellsPercent=0, Tmax=600, UnlimitedTmax=318.56978
limitTemperature=limitT, Type=Lower, LimitedCells=0, CellsPercent=0, Tmin=250, UnlimitedTmin=323.26018
limitTemperature=limitT, Type=Upper, LimitedCells=0, CellsPercent=0, Tmax=600, UnlimitedTmax=341.43772
limitTemperature=limitT, Type=Lower, LimitedCells=0, CellsPercent=0, Tmin=250, UnlimitedTmin=321.14807
limitTemperature=limitT, Type=Upper, LimitedCells=0, CellsPercent=0, Tmax=600, UnlimitedTmax=325.14187
limitTemperature=limitT, Type=Lower, LimitedCells=0, CellsPercent=0, Tmin=250, UnlimitedTmin=319.4882
limitTemperature=limitT, Type=Upper, LimitedCells=0, CellsPercent=0, Tmax=600, UnlimitedTmax=331.41942
limitTemperature=limitT, Type=Lower, LimitedCells=0, CellsPercent=0, Tmin=250, UnlimitedTmin=303.59249
limitTemperature=limitT, Type=Upper, LimitedCells=0, CellsPercent=0, Tmax=600, UnlimitedTmax=304.88345
DICPBiCGStab:  Solving for p_rgh, Initial residual = 0.19856713, Final residual = 0.01970655, No Iterations 20
time step continuity errors : sum local = 0.0098495344, global = 0.007554629, cumulative = 0.018939453
Min/max rho:1.056613 1.1766973
DILUPBiCGStab:  Solving for epsilon, Initial residual = 0.024612404, Final residual = 0.00048861208, No Iterations 1
bounding epsilon, min: -0.039123579 max: 10 average: 0.026832014
DILUPBiCGStab:  Solving for k, Initial residual = 0.004680135, Final residual = 0.00022610578, No Iterations 1
ExecutionTime = 2.4 s  ClockTime = 2 s

volFieldValue fluid write:
    volAverage(fluid) of T = 300.04154

volFieldValue pcb write:
    volAverage(pcb) of T = 301.64737

volFieldValue component_0 write:
    volAverage(component_0) of T = 317.46996

volFieldValue component_1 write:
    volAverage(component_1) of T = 338.68074

volFieldValue component_2 write:
    volAverage(component_2) of T = 324.49094

volFieldValue component_3 write:
    volAverage(component_3) of T = 328.23101

volFieldValue component_4 write:
    volAverage(component_4) of T = 304.66005

Time = 22


Solving for fluid region fluid
DILUPBiCGStab:  Solving for Ux, Initial residual = 0.035550843, Final residual = 0.00063231739, No Iterations 2
DILUPBiCGStab:  Solving for Uy, Initial residual = 0.033576723, Final residual = 0.00070868246, No Iterations 2

Solving energy coupled regions
Using lduPrimitiveAssembly: lduAssembly456789
DILUPBiCGStab:  Solving for h, Initial residual = 0.023351106, Final residual = 0.00032985094, No Iterations 1
limitTemperature=limitT, Type=Lower, LimitedCells=0, CellsPercent=0, Tmin=250, UnlimitedTmin=299.99945
limitTemperature=limitT, Type=Upper, LimitedCells=0, CellsPercent=0, Tmax=6000, UnlimitedTmax=303.08309
limitTemperature=limitT, Type=Lower, LimitedCells=0, CellsPercent=0, Tmin=250, UnlimitedTmin=299.99961
limitTemperature=limitT, Type=Upper, LimitedCells=0, CellsPercent=0, Tmax=6000, UnlimitedTmax=314.23327
limitTemperature=limitT, Type=Lower, LimitedCells=0, CellsPercent=0, Tmin=250, UnlimitedTmin=313.36638
limitTemperature=limitT, Type=Upper, LimitedCells=0, CellsPercent=0, Tmax=600, UnlimitedTmax=319.37413
limitTemperature=limitT, Type=Lower, LimitedCells=0, CellsPercent=0, Tmin=250, UnlimitedTmin=323.99505
limitTemperature=limitT, Type=Upper, LimitedCells=0, CellsPercent=0, Tmax=600, UnlimitedTmax=343.26932
limitTemperature=limitT, Type=Lower, LimitedCells=0, CellsPercent=0, Tmin=250, UnlimitedTmin=321.96284
limitTemperature=limitT, Type=Upper, LimitedCells=0, CellsPercent=0, Tmax=600, UnlimitedTmax=326.22855
limitTemperature=limitT, Type=Lower, LimitedCells=0, CellsPercent=0, Tmin=250, UnlimitedTmin=320.27206
limitTemperature=limitT, Type=Upper, LimitedCells=0, CellsPercent=0, Tmax=600, UnlimitedTmax=332.74682
limitTemperature=limitT, Type=Lower, LimitedCells=0, CellsPercent=0, Tmin=250, UnlimitedTmin=303.77703
limitTemperature=limitT, Type=Upper, LimitedCells=0, CellsPercent=0, Tmax=600, UnlimitedTmax=305.10913
DICPBiCGStab:  Solving for p_rgh, Initial residual = 0.22235943, Final residual = 0.0221867, No Iterations 23
time step continuity errors : sum local = 0.010233263, global = 0.0099579245, cumulative = 0.028897377
Min/max rho:1.0518433 1.1766958
DILUPBiCGStab:  Solving for epsilon, Initial residual = 0.025147433, Final residual = 0.00046721599, No Iterations 1
bounding epsilon, min: -0.039335315 max: 10 average: 0.026466777
DILUPBiCGStab:  Solving for k, Initial residual = 0.0046686873, Final residual = 0.00019935915, No Iterations 1
ExecutionTime = 2.51 s  ClockTime = 2 s

volFieldValue fluid write:
    volAverage(fluid) of T = 300.04502

volFieldValue pcb write:
    volAverage(pcb) of T = 301.77958

volFieldValue component_0 write:
    volAverage(component_0) of T = 318.18917

volFieldValue component_1 write:
    volAverage(component_1) of T = 340.26805

volFieldValue component_2 write:
    volAverage(component_2) of T = 325.51502

volFieldValue component_3 write:
    volAverage(component_3) of T = 329.35913

volFieldValue component_4 write:
    volAverage(component_4) of T = 304.86225

Time = 23


Solving for fluid region fluid
DILUPBiCGStab:  Solving for Ux, Initial residual = 0.030309897, Final residual = 0.00053811486, No Iterations 2
DILUPBiCGStab:  Solving for Uy, Initial residual = 0.035586151, Final residual = 0.00066112855, No Iterations 2

Solving energy coupled regions
Using lduPrimitiveAssembly: lduAssembly456789
DILUPBiCGStab:  Solving for h, Initial residual = 0.022942869, Final residual = 0.00032696599, No Iterations 1
limitTemperature=limitT, Type=Lower, LimitedCells=0, CellsPercent=0, Tmin=250, UnlimitedTmin=299.99946
limitTemperature=limitT, Type=Upper, LimitedCells=0, CellsPercent=0, Tmax=6000, UnlimitedTmax=303.14152
limitTemperature=limitT, Type=Lower, LimitedCells=0, CellsPercent=0, Tmin=250, UnlimitedTmin=299.99962
limitTemperature=limitT, Type=Upper, LimitedCells=0, CellsPercent=0, Tmax=6000, UnlimitedTmax=315.2684
limitTemperature=limitT, Type=Lower, LimitedCells=0, CellsPercent=0, Tmin=250, UnlimitedTmin=313.83209
limitTemperature=limitT, Type=Upper, LimitedCells=0, CellsPercent=0, Tmax=600, UnlimitedTmax=320.17196
limitTemperature=limitT, Type=Lower, LimitedCells=0, CellsPercent=0, Tmin=250, UnlimitedTmin=324.98993
limitTemperature=limitT, Type=Upper, LimitedCells=0, CellsPercent=0, Tmax=600, UnlimitedTmax=345.08229
limitTemperature=limitT, Type=Lower, LimitedCells=0, CellsPercent=0, Tmin=250, UnlimitedTmin=322.79854
limitTemperature=limitT, Type=Upper, LimitedCells=0, CellsPercent=0, Tmax=600, UnlimitedTmax=327.30406
limitTemperature=limitT, Type=Lower, LimitedCells=0, CellsPercent=0, Tmin=250, UnlimitedTmin=320.96838
limitTemperature=limitT, Type=Upper, LimitedCells=0, CellsPercent=0, Tmax=600, UnlimitedTmax=334.05392
limitTemperature=limitT, Type=Lower, LimitedCells=0, CellsPercent=0, Tmin=250, UnlimitedTmin=303.96758
limitTemperature=limitT, Type=Upper, LimitedCells=0, CellsPercent=0, Tmax=600, UnlimitedTmax=305.33332
DICPBiCGStab:  Solving for p_rgh, Initial residual = 0.22860971, Final residual = 0.022757955, No Iterations 39
time step continuity errors : sum local = 0.0097157209, global = 0.00912134, cumulative = 0.038018717
Min/max rho:1.0472432 1.1766944
DILUPBiCGStab:  Solving for epsilon, Initial residual = 0.027606701, Final residual = 0.00040332841, No Iterations 1
bounding epsilon, min: -0.039288093 max: 10 average: 0.026230171
DILUPBiCGStab:  Solving for k, Initial residual = 0.0044531328, Final residual = 0.00019560219, No Iterations 1
ExecutionTime = 2.71 s  ClockTime = 3 s

volFieldValue fluid write:
    volAverage(fluid) of T = 300.04843

volFieldValue pcb write:
    volAverage(pcb) of T = 301.91518

volFieldValue component_0 write:
    volAverage(component_0) of T = 318.90702

volFieldValue component_1 write:
    volAverage(component_1) of T = 341.84275

volFieldValue component_2 write:
    volAverage(component_2) of T = 326.53255

volFieldValue component_3 write:
    volAverage(component_3) of T = 330.46177

volFieldValue component_4 write:
    volAverage(component_4) of T = 305.06261

Time = 24


Solving for fluid region fluid
DILUPBiCGStab:  Solving for Ux, Initial residual = 0.022203699, Final residual = 0.00042770063, No Iterations 2
DILUPBiCGStab:  Solving for Uy, Initial residual = 0.041687314, Final residual = 0.00073674043, No Iterations 2

Solving energy coupled regions
Using lduPrimitiveAssembly: lduAssembly456789
DILUPBiCGStab:  Solving for h, Initial residual = 0.022563169, Final residual = 0.00032475066, No Iterations 1
limitTemperature=limitT, Type=Lower, LimitedCells=0, CellsPercent=0, Tmin=250, UnlimitedTmin=299.99947
limitTemperature=limitT, Type=Upper, LimitedCells=0, CellsPercent=0, Tmax=6000, UnlimitedTmax=303.26372
limitTemperature=limitT, Type=Lower, LimitedCells=0, CellsPercent=0, Tmin=250, UnlimitedTmin=299.99962
limitTemperature=limitT, Type=Upper, LimitedCells=0, CellsPercent=0, Tmax=6000, UnlimitedTmax=316.31993
limitTemperature=limitT, Type=Lower, LimitedCells=0, CellsPercent=0, Tmin=250, UnlimitedTmin=314.33808
limitTemperature=limitT, Type=Upper, LimitedCells=0, CellsPercent=0, Tmax=600, UnlimitedTmax=320.96476
limitTemperature=limitT, Type=Lower, LimitedCells=0, CellsPercent=0, Tmin=250, UnlimitedTmin=326.15828
limitTemperature=limitT, Type=Upper, LimitedCells=0, CellsPercent=0, Tmax=600, UnlimitedTmax=346.87528
limitTemperature=limitT, Type=Lower, LimitedCells=0, CellsPercent=0, Tmin=250, UnlimitedTmin=323.65336
limitTemperature=limitT, Type=Upper, LimitedCells=0, CellsPercent=0, Tmax=600, UnlimitedTmax=328.36878
limitTemperature=limitT, Type=Lower, LimitedCells=0, CellsPercent=0, Tmin=250, UnlimitedTmin=321.59306
limitTemperature=limitT, Type=Upper, LimitedCells=0, CellsPercent=0, Tmax=600, UnlimitedTmax=335.33998
limitTemperature=limitT, Type=Lower, LimitedCells=0, CellsPercent=0, Tmin=250, UnlimitedTmin=304.15276
limitTemperature=limitT, Type=Upper, LimitedCells=0, CellsPercent=0, Tmax=600, UnlimitedTmax=305.55598
DICPBiCGStab:  Solving for p_rgh, Initial residual = 0.23668804, Final residual = 0.014041384, No Iterations 130
time step continuity errors : sum local = 0.0051785016, global = 0.0051785014, cumulative = 0.043197218
Min/max rho:1.0427572 1.1766936
DILUPBiCGStab:  Solving for epsilon, Initial residual = 0.030020883, Final residual = 0.0005406844, No Iterations 1
bounding epsilon, min: -0.038552827 max: 10 average: 0.025956452
DILUPBiCGStab:  Solving for k, Initial residual = 0.0041185763, Final residual = 0.00018777763, No Iterations 1
ExecutionTime = 3.19 s  ClockTime = 3 s

volFieldValue fluid write:
    volAverage(fluid) of T = 300.05218

volFieldValue pcb write:
    volAverage(pcb) of T = 302.0539

volFieldValue component_0 write:
    volAverage(component_0) of T = 319.61452

volFieldValue component_1 write:
    volAverage(component_1) of T = 343.40984

[...]

volFieldValue component_4 write:
    volAverage(component_4) of T = 331.6482

Time = 241


Solving for fluid region fluid
DILUPBiCGStab:  Solving for Ux, Initial residual = 0.37152017, Final residual = 0.0085909738, No Iterations 2
DILUPBiCGStab:  Solving for Uy, Initial residual = 0.4876736, Final residual = 0.019532836, No Iterations 1

Solving energy coupled regions
Using lduPrimitiveAssembly: lduAssembly456789
DILUPBiCGStab:  Solving for h, Initial residual = 0.99999922, Final residual = 0.021036014, No Iterations 7
limitTemperature=limitT, Type=Lower, LimitedCells=2670, CellsPercent=27.73, Tmin=250, UnlimitedTmin=250
limitTemperature=limitT, Type=Upper, LimitedCells=1167, CellsPercent=12.12, Tmax=6000, UnlimitedTmax=6000
limitTemperature=limitT, Type=Lower, LimitedCells=434, CellsPercent=84.77, Tmin=250, UnlimitedTmin=250
limitTemperature=limitT, Type=Upper, LimitedCells=0, CellsPercent=0, Tmax=6000, UnlimitedTmax=6000
limitTemperature=limitT, Type=Lower, LimitedCells=96, CellsPercent=100, Tmin=250, UnlimitedTmin=323.5566
limitTemperature=limitT, Type=Upper, LimitedCells=0, CellsPercent=0, Tmax=600, UnlimitedTmax=600
limitTemperature=limitT, Type=Lower, LimitedCells=159, CellsPercent=100, Tmin=250, UnlimitedTmin=250
limitTemperature=limitT, Type=Upper, LimitedCells=0, CellsPercent=0, Tmax=600, UnlimitedTmax=600
limitTemperature=limitT, Type=Lower, LimitedCells=24, CellsPercent=53.33, Tmin=250, UnlimitedTmin=250
limitTemperature=limitT, Type=Upper, LimitedCells=8, CellsPercent=17.78, Tmax=600, UnlimitedTmax=600
limitTemperature=limitT, Type=Lower, LimitedCells=115, CellsPercent=100, Tmin=250, UnlimitedTmin=250
limitTemperature=limitT, Type=Upper, LimitedCells=0, CellsPercent=0, Tmax=600, UnlimitedTmax=522.73216
limitTemperature=limitT, Type=Lower, LimitedCells=161, CellsPercent=100, Tmin=250, UnlimitedTmin=250
limitTemperature=limitT, Type=Upper, LimitedCells=0, CellsPercent=0, Tmax=600, UnlimitedTmax=600
DICPBiCGStab:  Solving for p_rgh, Initial residual = 0.90813187, Final residual = 0.053521198, No Iterations 2
time step continuity errors : sum local = 91736.72, global = -84.155407, cumulative = -407.16515
Min/max rho:0.015227857 1166119.9
DILUPBiCGStab:  Solving for epsilon, Initial residual = 0.999806, Final residual = 0.029228993, No Iterations 1
bounding epsilon, min: -914.3903 max: 2.3767197e+10 average: 12845870
DILUPBiCGStab:  Solving for k, Initial residual = 0.01011672, Final residual = 5.6113561e-06, No Iterations 1
bounding k, min: -0.00030128894 max: 4.9279533e+08 average: 135112.33
ExecutionTime = 23.28 s  ClockTime = 23 s

volFieldValue fluid write:
    volAverage(fluid) of T = 1137.9378

volFieldValue pcb write:
    volAverage(pcb) of T = 308.01558

volFieldValue component_0 write:
    volAverage(component_0) of T = 250

volFieldValue component_1 write:
    volAverage(component_1) of T = 250

volFieldValue component_2 write:
    volAverage(component_2) of T = 364.81358

volFieldValue component_3 write:
    volAverage(component_3) of T = 250

volFieldValue component_4 write:
    volAverage(component_4) of T = 250

Time = 242


Solving for fluid region fluid
DILUPBiCGStab:  Solving for Ux, Initial residual = 0.55430976, Final residual = 0.012142467, No Iterations 6
DILUPBiCGStab:  Solving for Uy, Initial residual = 0.48719135, Final residual = 0.0051110355, No Iterations 7

Solving energy coupled regions
Using lduPrimitiveAssembly: lduAssembly456789
DILUPBiCGStab:  Solving for h, Initial residual = 1, Final residual = 0.035227019, No Iterations 8
limitTemperature=limitT, Type=Lower, LimitedCells=1927, CellsPercent=20.01, Tmin=250, UnlimitedTmin=250
limitTemperature=limitT, Type=Upper, LimitedCells=2453, CellsPercent=25.48, Tmax=6000, UnlimitedTmax=6000
limitTemperature=limitT, Type=Lower, LimitedCells=201, CellsPercent=39.26, Tmin=250, UnlimitedTmin=250
limitTemperature=limitT, Type=Upper, LimitedCells=293, CellsPercent=57.23, Tmax=6000, UnlimitedTmax=4491.4695
limitTemperature=limitT, Type=Lower, LimitedCells=0, CellsPercent=0, Tmin=250, UnlimitedTmin=250
limitTemperature=limitT, Type=Upper, LimitedCells=96, CellsPercent=100, Tmax=600, UnlimitedTmax=250
limitTemperature=limitT, Type=Lower, LimitedCells=145, CellsPercent=91.19, Tmin=250, UnlimitedTmin=250
limitTemperature=limitT, Type=Upper, LimitedCells=14, CellsPercent=8.81, Tmax=600, UnlimitedTmax=250
limitTemperature=limitT, Type=Lower, LimitedCells=45, CellsPercent=100, Tmin=250, UnlimitedTmin=250
limitTemperature=limitT, Type=Upper, LimitedCells=0, CellsPercent=0, Tmax=600, UnlimitedTmax=600
limitTemperature=limitT, Type=Lower, LimitedCells=0, CellsPercent=0, Tmin=250, UnlimitedTmin=250
limitTemperature=limitT, Type=Upper, LimitedCells=115, CellsPercent=100, Tmax=600, UnlimitedTmax=250
limitTemperature=limitT, Type=Lower, LimitedCells=0, CellsPercent=0, Tmin=250, UnlimitedTmin=250
limitTemperature=limitT, Type=Upper, LimitedCells=161, CellsPercent=100, Tmax=600, UnlimitedTmax=250
DICPBiCGStab:  Solving for p_rgh, Initial residual = 0.98657651, Final residual = 0.087156338, No Iterations 2
time step continuity errors : sum local = 1.2894743e+13, global = -86.698465, cumulative = -493.86361
Min/max rho:0.0076139286 936504.68
DILUPBiCGStab:  Solving for epsilon, Initial residual = 0.0025126056, Final residual = 2.7056893e-05, No Iterations 2
bounding epsilon, min: -1.1016083e+12 max: 1.9359407e+13 average: 6.5566012e+09
DILUPBiCGStab:  Solving for k, Initial residual = 0.1417379, Final residual = 0.0019487268, No Iterations 2
bounding k, min: -60179475 max: 2.7807044e+10 average: 15125409
ExecutionTime = 23.37 s  ClockTime = 23 s

volFieldValue fluid write:
    volAverage(fluid) of T = 1773.7794

volFieldValue pcb write:
    volAverage(pcb) of T = 3498.5298

volFieldValue component_0 write:
    volAverage(component_0) of T = 600

volFieldValue component_1 write:
    volAverage(component_1) of T = 278.81992

volFieldValue component_2 write:
    volAverage(component_2) of T = 250

volFieldValue component_3 write:
    volAverage(component_3) of T = 600

volFieldValue component_4 write:
    volAverage(component_4) of T = 600

Time = 243


Solving for fluid region fluid
DILUPBiCGStab:  Solving for Ux, Initial residual = 0.44456602, Final residual = 0.013262029, No Iterations 2
DILUPBiCGStab:  Solving for Uy, Initial residual = 0.44331457, Final residual = 0.015124588, No Iterations 2

Solving energy coupled regions
Using lduPrimitiveAssembly: lduAssembly456789
DILUPBiCGStab:  Solving for h, Initial residual = 1, Final residual = 0.010492495, No Iterations 2
limitTemperature=limitT, Type=Lower, LimitedCells=2062, CellsPercent=21.42, Tmin=250, UnlimitedTmin=250
limitTemperature=limitT, Type=Upper, LimitedCells=2169, CellsPercent=22.53, Tmax=6000, UnlimitedTmax=6000
limitTemperature=limitT, Type=Lower, LimitedCells=228, CellsPercent=44.53, Tmin=250, UnlimitedTmin=250
limitTemperature=limitT, Type=Upper, LimitedCells=252, CellsPercent=49.22, Tmax=6000, UnlimitedTmax=6000
limitTemperature=limitT, Type=Lower, LimitedCells=3, CellsPercent=3.13, Tmin=250, UnlimitedTmin=600
limitTemperature=limitT, Type=Upper, LimitedCells=93, CellsPercent=96.88, Tmax=600, UnlimitedTmax=600
limitTemperature=limitT, Type=Lower, LimitedCells=154, CellsPercent=96.86, Tmin=250, UnlimitedTmin=250
limitTemperature=limitT, Type=Upper, LimitedCells=5, CellsPercent=3.14, Tmax=600, UnlimitedTmax=600
limitTemperature=limitT, Type=Lower, LimitedCells=20, CellsPercent=44.44, Tmin=250, UnlimitedTmin=250
limitTemperature=limitT, Type=Upper, LimitedCells=25, CellsPercent=55.56, Tmax=600, UnlimitedTmax=250
limitTemperature=limitT, Type=Lower, LimitedCells=62, CellsPercent=53.91, Tmin=250, UnlimitedTmin=600
limitTemperature=limitT, Type=Upper, LimitedCells=53, CellsPercent=46.09, Tmax=600, UnlimitedTmax=600
limitTemperature=limitT, Type=Lower, LimitedCells=53, CellsPercent=32.92, Tmin=250, UnlimitedTmin=600
limitTemperature=limitT, Type=Upper, LimitedCells=108, CellsPercent=67.08, Tmax=600, UnlimitedTmax=600
DICPBiCGStab:  Solving for p_rgh, Initial residual = 0.99917651, Final residual = 0.090570284, No Iterations 18
time step continuity errors : sum local = 4.0314115e+13, global = -6.922126e+08, cumulative = -6.9221309e+08
Min/max rho:0.0071931596 1.5234423e+10
DILUPBiCGStab:  Solving for epsilon, Initial residual = 0.42668794, Final residual = 0.0069710331, No Iterations 2
bounding epsilon, min: -5.643351e+14 max: 1.4343734e+16 average: 9.4157316e+12
DILUPBiCGStab:  Solving for k, Initial residual = 1, Final residual = 0.021611677, No Iterations 1
bounding k, min: -3.7379065e+09 max: 1.0734659e+20 average: 5.2023974e+16
ExecutionTime = 23.45 s  ClockTime = 23 s

volFieldValue fluid write:
    volAverage(fluid) of T = 1755.7947

volFieldValue pcb write:
    volAverage(pcb) of T = 3200.4164

volFieldValue component_0 write:
    volAverage(component_0) of T = 588.78443

volFieldValue component_1 write:
    volAverage(component_1) of T = 259.89335

volFieldValue component_2 write:
    volAverage(component_2) of T = 442.82855

volFieldValue component_3 write:
    volAverage(component_3) of T = 411.65863

volFieldValue component_4 write:
    volAverage(component_4) of T = 487.5043

Time = 244


Solving for fluid region fluid
DILUPBiCGStab:  Solving for Ux, Initial residual = 0.48007603, Final residual = 0.019981978, No Iterations 5
DILUPBiCGStab:  Solving for Uy, Initial residual = 0.61217664, Final residual = 0.024403139, No Iterations 6

Solving energy coupled regions
Using lduPrimitiveAssembly: lduAssembly456789
DILUPBiCGStab:  Solving for h, Initial residual = 1, Final residual = 0.04070078, No Iterations 28
limitTemperature=limitT, Type=Lower, LimitedCells=6806, CellsPercent=70.69, Tmin=250, UnlimitedTmin=250
limitTemperature=limitT, Type=Upper, LimitedCells=2440, CellsPercent=25.34, Tmax=6000, UnlimitedTmax=6000
limitTemperature=limitT, Type=Lower, LimitedCells=334, CellsPercent=65.23, Tmin=250, UnlimitedTmin=250
limitTemperature=limitT, Type=Upper, LimitedCells=178, CellsPercent=34.77, Tmax=6000, UnlimitedTmax=6000
limitTemperature=limitT, Type=Lower, LimitedCells=89, CellsPercent=92.71, Tmin=250, UnlimitedTmin=250
limitTemperature=limitT, Type=Upper, LimitedCells=7, CellsPercent=7.29, Tmax=600, UnlimitedTmax=600
limitTemperature=limitT, Type=Lower, LimitedCells=159, CellsPercent=100, Tmin=250, UnlimitedTmin=250
limitTemperature=limitT, Type=Upper, LimitedCells=0, CellsPercent=0, Tmax=600, UnlimitedTmax=600
limitTemperature=limitT, Type=Lower, LimitedCells=0, CellsPercent=0, Tmin=250, UnlimitedTmin=250
limitTemperature=limitT, Type=Upper, LimitedCells=45, CellsPercent=100, Tmax=600, UnlimitedTmax=600
limitTemperature=limitT, Type=Lower, LimitedCells=97, CellsPercent=84.35, Tmin=250, UnlimitedTmin=250
limitTemperature=limitT, Type=Upper, LimitedCells=18, CellsPercent=15.65, Tmax=600, UnlimitedTmax=600
limitTemperature=limitT, Type=Lower, LimitedCells=161, CellsPercent=100, Tmin=250, UnlimitedTmin=250
limitTemperature=limitT, Type=Upper, LimitedCells=0, CellsPercent=0, Tmax=600, UnlimitedTmax=600
DICPBiCGStab:  Solving for p_rgh, Initial residual = 0.99997153, Final residual = 0.061849445, No Iterations 4
time step continuity errors : sum local = 7.3441125e+21, global = 4.722529e+10, cumulative = 4.6533077e+10
Min/max rho:0.0036225669 5.0000762e+14
DILUPBiCGStab:  Solving for epsilon, Initial residual = 0.1978534, Final residual = 0.0070627912, No Iterations 1
bounding epsilon, min: -3.1452034e+22 max: 2.1946749e+26 average: 8.1631763e+22
DILUPBiCGStab:  Solving for k, Initial residual = 0.89419628, Final residual = 0.0098748889, No Iterations 2
bounding k, min: -6.9266371e+12 max: 4.589762e+31 average: 8.8944265e+27
ExecutionTime = 23.56 s  ClockTime = 24 s

volFieldValue fluid write:
    volAverage(fluid) of T = 1814.9422

volFieldValue pcb write:
    volAverage(pcb) of T = 2383.5214

volFieldValue component_0 write:
    volAverage(component_0) of T = 276.94076

volFieldValue component_1 write:
    volAverage(component_1) of T = 250

volFieldValue component_2 write:
    volAverage(component_2) of T = 600

volFieldValue component_3 write:
    volAverage(component_3) of T = 300.33299

volFieldValue component_4 write:
    volAverage(component_4) of T = 250

Time = 245


Solving for fluid region fluid
DILUPBiCGStab:  Solving for Ux, Initial residual = 0.003163838, Final residual = 2.7301301e-05, No Iterations 1
DILUPBiCGStab:  Solving for Uy, Initial residual = 0.012344783, Final residual = 0.00052314695, No Iterations 1

Solving energy coupled regions
Using lduPrimitiveAssembly: lduAssembly456789
DILUPBiCGStab:  Solving for h, Initial residual = 1, Final residual = 0.010667355, No Iterations 10
limitTemperature=limitT, Type=Lower, LimitedCells=2841, CellsPercent=29.51, Tmin=250, UnlimitedTmin=250
limitTemperature=limitT, Type=Upper, LimitedCells=6446, CellsPercent=66.95, Tmax=6000, UnlimitedTmax=6000
limitTemperature=limitT, Type=Lower, LimitedCells=362, CellsPercent=70.7, Tmin=250, UnlimitedTmin=250
limitTemperature=limitT, Type=Upper, LimitedCells=150, CellsPercent=29.3, Tmax=6000, UnlimitedTmax=6000
limitTemperature=limitT, Type=Lower, LimitedCells=87, CellsPercent=90.63, Tmin=250, UnlimitedTmin=250
limitTemperature=limitT, Type=Upper, LimitedCells=9, CellsPercent=9.38, Tmax=600, UnlimitedTmax=600
limitTemperature=limitT, Type=Lower, LimitedCells=65, CellsPercent=40.88, Tmin=250, UnlimitedTmin=250
limitTemperature=limitT, Type=Upper, LimitedCells=94, CellsPercent=59.12, Tmax=600, UnlimitedTmax=250
limitTemperature=limitT, Type=Lower, LimitedCells=45, CellsPercent=100, Tmin=250, UnlimitedTmin=600
limitTemperature=limitT, Type=Upper, LimitedCells=0, CellsPercent=0, Tmax=600, UnlimitedTmax=600
limitTemperature=limitT, Type=Lower, LimitedCells=115, CellsPercent=100, Tmin=250, UnlimitedTmin=250
limitTemperature=limitT, Type=Upper, LimitedCells=0, CellsPercent=0, Tmax=600, UnlimitedTmax=600
limitTemperature=limitT, Type=Lower, LimitedCells=120, CellsPercent=74.53, Tmin=250, UnlimitedTmin=250
limitTemperature=limitT, Type=Upper, LimitedCells=41, CellsPercent=25.47, Tmax=600, UnlimitedTmax=250
DICPBiCGStab:  Solving for p_rgh, Initial residual = 0.99951608, Final residual = 0.07426499, No Iterations 6
time step continuity errors : sum local = 1.3566396e+29, global = 1.1091139e+13, cumulative = 1.1137672e+13
Min/max rho:0.0018112834 7.5000095e+14
DILUPBiCGStab:  Solving for epsilon, Initial residual = 0.29519842, Final residual = 0.011771673, No Iterations 2
bounding epsilon, min: -1.0854812e+47 max: 2.0557101e+43 average: -1.9647595e+43
DILUPBiCGStab:  Solving for k, Initial residual = 5.8650275e-12, Final residual = 5.8650275e-12, No Iterations 0
ExecutionTime = 23.6 s  ClockTime = 24 s

volFieldValue fluid write:
    volAverage(fluid) of T = 4186.6743

volFieldValue pcb write:
    volAverage(pcb) of T = 1835.6245

volFieldValue component_0 write:
    volAverage(component_0) of T = 281.91623

volFieldValue component_1 write:
    volAverage(component_1) of T = 458.81585

volFieldValue component_2 write:
    volAverage(component_2) of T = 250

volFieldValue component_3 write:
    volAverage(component_3) of T = 250

volFieldValue component_4 write:
    volAverage(component_4) of T = 336.82321

Time = 246


Solving for fluid region fluid
DILUPBiCGStab:  Solving for Ux, Initial residual = 0.58205837, Final residual = 0.017738067, No Iterations 12
DILUPBiCGStab:  Solving for Uy, Initial residual = 0.61278872, Final residual = 0.003335539, No Iterations 15

Solving energy coupled regions
Using lduPrimitiveAssembly: lduAssembly456789
DILUPBiCGStab:  Solving for h, Initial residual = 1, Final residual = 0.0097295726, No Iterations 28
limitTemperature=limitT, Type=Lower, LimitedCells=3385, CellsPercent=35.16, Tmin=250, UnlimitedTmin=250
limitTemperature=limitT, Type=Upper, LimitedCells=6243, CellsPercent=64.84, Tmax=6000, UnlimitedTmax=6000
limitTemperature=limitT, Type=Lower, LimitedCells=82, CellsPercent=16.02, Tmin=250, UnlimitedTmin=250
limitTemperature=limitT, Type=Upper, LimitedCells=430, CellsPercent=83.98, Tmax=6000, UnlimitedTmax=6000
limitTemperature=limitT, Type=Lower, LimitedCells=0, CellsPercent=0, Tmin=250, UnlimitedTmin=250
limitTemperature=limitT, Type=Upper, LimitedCells=96, CellsPercent=100, Tmax=600, UnlimitedTmax=600
limitTemperature=limitT, Type=Lower, LimitedCells=0, CellsPercent=0, Tmin=250, UnlimitedTmin=250
limitTemperature=limitT, Type=Upper, LimitedCells=159, CellsPercent=100, Tmax=600, UnlimitedTmax=600
limitTemperature=limitT, Type=Lower, LimitedCells=45, CellsPercent=100, Tmin=250, UnlimitedTmin=250
limitTemperature=limitT, Type=Upper, LimitedCells=0, CellsPercent=0, Tmax=600, UnlimitedTmax=250
limitTemperature=limitT, Type=Lower, LimitedCells=34, CellsPercent=29.57, Tmin=250, UnlimitedTmin=250
limitTemperature=limitT, Type=Upper, LimitedCells=81, CellsPercent=70.43, Tmax=600, UnlimitedTmax=250
limitTemperature=limitT, Type=Lower, LimitedCells=0, CellsPercent=0, Tmin=250, UnlimitedTmin=250
limitTemperature=limitT, Type=Upper, LimitedCells=161, CellsPercent=100, Tmax=600, UnlimitedTmax=600
DICPBiCGStab:  Solving for p_rgh, Initial residual = 0.99999567, Final residual = 0.099976293, No Iterations 3
time step continuity errors : sum local = 1.9536866e+45, global = -5.7116135e+29, cumulative = -5.7116135e+29
Min/max rho:0.0016972508 8.7500016e+14
DILUPBiCGStab:  Solving for epsilon, Initial residual = 0.99992992, Final residual = 0.022645556, No Iterations 3
bounding epsilon, min: -3.3848053e+55 max: 4.3005724e+57 average: 4.3354532e+53
DILUPBiCGStab:  Solving for k, Initial residual = 1, Final residual = 2.5125435e-05, No Iterations 1
bounding k, min: -5.0181061e+39 max: 2.36463e+68 average: 2.455993e+64
ExecutionTime = 23.7 s  ClockTime = 24 s

volFieldValue fluid write:
    volAverage(fluid) of T = 4026.5432

volFieldValue pcb write:
    volAverage(pcb) of T = 5033.987

volFieldValue component_0 write:
    volAverage(component_0) of T = 600

volFieldValue component_1 write:
    volAverage(component_1) of T = 600

volFieldValue component_2 write:
    volAverage(component_2) of T = 250

volFieldValue component_3 write:
    volAverage(component_3) of T = 500.81426

volFieldValue component_4 write:
    volAverage(component_4) of T = 600

Time = 247


Solving for fluid region fluid
DILUPBiCGStab:  Solving for Ux, Initial residual = 0.80893977, Final residual = 0.028059127, No Iterations 2
DILUPBiCGStab:  Solving for Uy, Initial residual = 0.80894139, Final residual = 0.017172282, No Iterations 2

Solving energy coupled regions
Using lduPrimitiveAssembly: lduAssembly456789
[stack trace]
=============
#1  Foam::sigFpe::sigHandler(int) in /usr/lib/openfoam/openfoam2506/platforms/linux64GccDPInt32Opt/lib/libOpenFOAM.so
#2  ? in /lib/x86_64-linux-gnu/libc.so.6
#3  Foam::PBiCGStab::scalarSolve(Foam::Field<double>&, Foam::Field<double> const&, unsigned char) const in /usr/lib/openfoam/openfoam2506/platforms/linux64GccDPInt32Opt/lib/libOpenFOAM.so
#4  Foam::PBiCGStab::solve(Foam::Field<double>&, Foam::Field<double> const&, unsigned char) const in /usr/lib/openfoam/openfoam2506/platforms/linux64GccDPInt32Opt/lib/libOpenFOAM.so
#5  Foam::fvMatrix<double>::solveSegregated(Foam::dictionary const&) in /usr/lib/openfoam/openfoam2506/platforms/linux64GccDPInt32Opt/lib/libfiniteVolume.so
#6  ? in /usr/lib/openfoam/openfoam2506/platforms/linux64GccDPInt32Opt/lib/libfiniteVolume.so
#7  Foam::fvMesh::solve(Foam::fvMatrix<double>&, Foam::dictionary const&) const in /usr/lib/openfoam/openfoam2506/platforms/linux64GccDPInt32Opt/lib/libfiniteVolume.so
#8  ? in /usr/lib/openfoam/openfoam2506/platforms/linux64GccDPInt32Opt/bin/chtMultiRegionSimpleFoam
#9  ? in /usr/lib/openfoam/openfoam2506/platforms/linux64GccDPInt32Opt/bin/chtMultiRegionSimpleFoam
#10  ? in /lib/x86_64-linux-gnu/libc.so.6
#11  __libc_start_main in /lib/x86_64-linux-gnu/libc.so.6
#12  ? in /usr/lib/openfoam/openfoam2506/platforms/linux64GccDPInt32Opt/bin/chtMultiRegionSimpleFoam
=============
Floating point exception (core dumped)
