/*---------------------------------------------------------------------------*\
| =========                 |                                                 |
| \\      /  F ield         | OpenFOAM: The Open Source CFD Toolbox           |
|  \\    /   O peration     | Version:  2506                                  |
|   \\  /    A nd           | Website:  www.openfoam.com                      |
|    \\/     M anipulation  |                                                 |
\*---------------------------------------------------------------------------*/
Build  : _615aae61-20250627 OPENFOAM=2506 version=2506
Arch   : "LSB;label=32;scalar=64"
Exec   : chtMultiRegionSimpleFoam
Date   : Sep 23 2025
Time   : 23:41:19
Host   : instance-20250906-0051
PID    : 231120
I/O    : uncollated
Case   : /home/ubuntu/ThermalUNet/data_generation/simulation_results/case_17
nProcs : 1
trapFpe: Floating point exception trapping enabled (FOAM_SIGFPE).
fileModificationChecking : Monitoring run-time modified files using timeStampMaster (fileModificationSkew 5, maxFileModificationPolls 20)
allowSystemOperations : Allowing user-supplied system call operations

// * * * * * * * * * * * * * * * * * * * * * * * * * * * * * * * * * * * * * //
Create time

Create fluid mesh for region fluid for time = 0

Create solid mesh for region pcb for time = 0

Create solid mesh for region component_0 for time = 0

Create solid mesh for region component_1 for time = 0

Create solid mesh for region component_2 for time = 0

Create solid mesh for region component_3 for time = 0

Create solid mesh for region component_4 for time = 0

*** Reading fluid mesh thermophysical properties for region fluid

    Adding to thermoFluid

Selecting thermodynamics package 
{
    type            heRhoThermo;
    mixture         pureMixture;
    transport       const;
    thermo          hConst;
    equationOfState perfectGas;
    specie          specie;
    energy          sensibleEnthalpy;
}

    Adding to rhoFluid

    Adding to UFluid

    Adding to phiFluid

    Adding to hRefFluid

    Adding to ghFluid

    Adding to ghfFluid

    Adding to turbulence

Selecting turbulence model type RAS
Selecting RAS turbulence model realizableKE
RAS
{
    RASModel        realizableKE;
    turbulence      on;
    printCoeffs     on;
    A0              4;
    C2              1.9;
    sigmak          1;
    sigmaEps        1.2;
}

Radiation model not active: radiationProperties not found
Selecting radiationModel none
    Adding MRF

No MRF models present

    Adding fvOptions

Creating finite volume options from "system/fvOptions"

Selecting finite volume options type limitTemperature
    Source: limitT
    State: active
    - selecting all cells
    - selected 8490 cell(s) with volume 15.857688
*** Reading solid mesh thermophysical properties for region pcb

    Adding to thermos

Selecting thermodynamics package 
{
    type            heSolidThermo;
    mixture         pureMixture;
    transport       constIso;
    thermo          hConst;
    equationOfState rhoConst;
    specie          specie;
    energy          sensibleEnthalpy;
}

    Adding to radiations

Radiation model not active: radiationProperties not found
Selecting radiationModel none
    Adding fvOptions

Creating finite volume options from "system/fvOptions"

Selecting finite volume options type limitTemperature
    Source: limitT
    State: active
    - selecting all cells
    - selected 707 cell(s) with volume 1.3167653
*** Reading solid mesh thermophysical properties for region component_0

    Adding to thermos

Selecting thermodynamics package 
{
    type            heSolidThermo;
    mixture         pureMixture;
    transport       constIso;
    thermo          hConst;
    equationOfState rhoConst;
    specie          specie;
    energy          sensibleEnthalpy;
}

    Adding to radiations

Radiation model not active: radiationProperties not found
Selecting radiationModel none
    Adding fvOptions

Creating finite volume options from "system/fvOptions"

Selecting finite volume options type scalarSemiImplicitSource
    Source: v_CPU_AbsoluteEnergySource
    State: active
    - selecting cells using cellZones (component_0)
    - selected 561 cell(s) with volume 1.1034131
Selecting finite volume options type limitTemperature
    Source: limitT
    State: active
    - selecting all cells
    - selected 561 cell(s) with volume 1.1034131
*** Reading solid mesh thermophysical properties for region component_1

    Adding to thermos

Selecting thermodynamics package 
{
    type            heSolidThermo;
    mixture         pureMixture;
    transport       constIso;
    thermo          hConst;
    equationOfState rhoConst;
    specie          specie;
    energy          sensibleEnthalpy;
}

    Adding to radiations

Radiation model not active: radiationProperties not found
Selecting radiationModel none
    Adding fvOptions

Creating finite volume options from "system/fvOptions"

Selecting finite volume options type scalarSemiImplicitSource
    Source: v_CPU_AbsoluteEnergySource
    State: active
    - selecting cells using cellZones (component_1)
    - selected 551 cell(s) with volume 1.1457519
Selecting finite volume options type limitTemperature
    Source: limitT
    State: active
    - selecting all cells
    - selected 551 cell(s) with volume 1.1457519
*** Reading solid mesh thermophysical properties for region component_2

    Adding to thermos

Selecting thermodynamics package 
{
    type            heSolidThermo;
    mixture         pureMixture;
    transport       constIso;
    thermo          hConst;
    equationOfState rhoConst;
    specie          specie;
    energy          sensibleEnthalpy;
}

    Adding to radiations

Radiation model not active: radiationProperties not found
Selecting radiationModel none
    Adding fvOptions

Creating finite volume options from "system/fvOptions"

Selecting finite volume options type scalarSemiImplicitSource
    Source: v_CPU_AbsoluteEnergySource
    State: active
    - selecting cells using cellZones (component_2)
    - selected 120 cell(s) with volume 0.20556892
Selecting finite volume options type limitTemperature
    Source: limitT
    State: active
    - selecting all cells
    - selected 120 cell(s) with volume 0.20556892
*** Reading solid mesh thermophysical properties for region component_3

    Adding to thermos

Selecting thermodynamics package 
{
    type            heSolidThermo;
    mixture         pureMixture;
    transport       constIso;
    thermo          hConst;
    equationOfState rhoConst;
    specie          specie;
    energy          sensibleEnthalpy;
}

    Adding to radiations

Radiation model not active: radiationProperties not found
Selecting radiationModel none
    Adding fvOptions

Creating finite volume options from "system/fvOptions"

Selecting finite volume options type scalarSemiImplicitSource
    Source: v_CPU_AbsoluteEnergySource
    State: active
    - selecting cells using cellZones (component_3)
    - selected 168 cell(s) with volume 0.32310542
Selecting finite volume options type limitTemperature
    Source: limitT
    State: active
    - selecting all cells
    - selected 168 cell(s) with volume 0.32310542
*** Reading solid mesh thermophysical properties for region component_4

    Adding to thermos

Selecting thermodynamics package 
{
    type            heSolidThermo;
    mixture         pureMixture;
    transport       constIso;
    thermo          hConst;
    equationOfState rhoConst;
    specie          specie;
    energy          sensibleEnthalpy;
}

    Adding to radiations

Radiation model not active: radiationProperties not found
Selecting radiationModel none
    Adding fvOptions

Creating finite volume options from "system/fvOptions"

Selecting finite volume options type scalarSemiImplicitSource
    Source: v_CPU_AbsoluteEnergySource
    State: active
    - selecting cells using cellZones (component_4)
    - selected 36 cell(s) with volume 0.047707626
Selecting finite volume options type limitTemperature
    Source: limitT
    State: active
    - selecting all cells
    - selected 36 cell(s) with volume 0.047707626
Create fvMatrixAssembly.
--> FOAM Warning : 

    failed lookup of region0 (objectRegistry case_17)
    available objects of type objectRegistry:
7(component_3 component_0 component_1 fluid pcb component_4 component_2)


    From const Type& Foam::objectRegistry::lookupObject(const Foam::word&, bool) const [with Type = Foam::objectRegistry]
    in file db/objectRegistry/objectRegistryTemplates.C at line 628.
--> loading function object 'limitT'

Time = 1


Solving for fluid region fluid
DILUPBiCGStab:  Solving for Ux, Initial residual = 1, Final residual = 0.033863681, No Iterations 2
DILUPBiCGStab:  Solving for Uy, Initial residual = 1, Final residual = 0.029428576, No Iterations 2

Solving energy coupled regions
Creating lduPrimitiveAssembly: lduAssembly456789
DILUPBiCGStab:  Solving for h, Initial residual = 0.014985938, Final residual = 0.00027926787, No Iterations 1
limitTemperature=limitT, Type=Lower, LimitedCells=0, CellsPercent=0, Tmin=250, UnlimitedTmin=300
limitTemperature=limitT, Type=Upper, LimitedCells=0, CellsPercent=0, Tmax=6000, UnlimitedTmax=300
limitTemperature=limitT, Type=Lower, LimitedCells=0, CellsPercent=0, Tmin=250, UnlimitedTmin=300
limitTemperature=limitT, Type=Upper, LimitedCells=0, CellsPercent=0, Tmax=6000, UnlimitedTmax=300
limitTemperature=limitT, Type=Lower, LimitedCells=0, CellsPercent=0, Tmin=250, UnlimitedTmin=300
limitTemperature=limitT, Type=Upper, LimitedCells=0, CellsPercent=0, Tmax=600, UnlimitedTmax=300
limitTemperature=limitT, Type=Lower, LimitedCells=0, CellsPercent=0, Tmin=250, UnlimitedTmin=300
limitTemperature=limitT, Type=Upper, LimitedCells=0, CellsPercent=0, Tmax=600, UnlimitedTmax=300
limitTemperature=limitT, Type=Lower, LimitedCells=0, CellsPercent=0, Tmin=250, UnlimitedTmin=300
limitTemperature=limitT, Type=Upper, LimitedCells=0, CellsPercent=0, Tmax=600, UnlimitedTmax=300
limitTemperature=limitT, Type=Lower, LimitedCells=0, CellsPercent=0, Tmin=250, UnlimitedTmin=300
limitTemperature=limitT, Type=Upper, LimitedCells=0, CellsPercent=0, Tmax=600, UnlimitedTmax=300
limitTemperature=limitT, Type=Lower, LimitedCells=0, CellsPercent=0, Tmin=250, UnlimitedTmin=300
limitTemperature=limitT, Type=Upper, LimitedCells=0, CellsPercent=0, Tmax=600, UnlimitedTmax=300
DICPBiCGStab:  Solving for p_rgh, Initial residual = 1, Final residual = 0.048475663, No Iterations 123
time step continuity errors : sum local = 0.010930713, global = 0.0039512752, cumulative = 0.0039512752
Min/max rho:1.1764548 1.1766771
DILUPBiCGStab:  Solving for epsilon, Initial residual = 0.83002639, Final residual = 0.0013406451, No Iterations 1
DILUPBiCGStab:  Solving for k, Initial residual = 1, Final residual = 0.015992555, No Iterations 1
ExecutionTime = 0.38 s  ClockTime = 0 s

volFieldValue fluid write:
    volAverage(fluid) of T = 300.00031

volFieldValue pcb write:
    volAverage(pcb) of T = 300.01997

volFieldValue component_0 write:
    volAverage(component_0) of T = 300.10575

volFieldValue component_1 write:
    volAverage(component_1) of T = 300.31374

volFieldValue component_2 write:
    volAverage(component_2) of T = 303.25042

volFieldValue component_3 write:
    volAverage(component_3) of T = 304.9908

volFieldValue component_4 write:
    volAverage(component_4) of T = 306.4957

Time = 2


Solving for fluid region fluid
DILUPBiCGStab:  Solving for Ux, Initial residual = 0.60492542, Final residual = 0.013664609, No Iterations 2
DILUPBiCGStab:  Solving for Uy, Initial residual = 0.52346746, Final residual = 0.010469942, No Iterations 2

Solving energy coupled regions
Using lduPrimitiveAssembly: lduAssembly456789
DILUPBiCGStab:  Solving for h, Initial residual = 0.014753589, Final residual = 0.00023716968, No Iterations 1
limitTemperature=limitT, Type=Lower, LimitedCells=0, CellsPercent=0, Tmin=250, UnlimitedTmin=299.98898
limitTemperature=limitT, Type=Upper, LimitedCells=0, CellsPercent=0, Tmax=6000, UnlimitedTmax=300.10236
limitTemperature=limitT, Type=Lower, LimitedCells=0, CellsPercent=0, Tmin=250, UnlimitedTmin=299.99194
limitTemperature=limitT, Type=Upper, LimitedCells=0, CellsPercent=0, Tmax=6000, UnlimitedTmax=300.47629
limitTemperature=limitT, Type=Lower, LimitedCells=0, CellsPercent=0, Tmin=250, UnlimitedTmin=300.07667
limitTemperature=limitT, Type=Upper, LimitedCells=0, CellsPercent=0, Tmax=600, UnlimitedTmax=300.13451
limitTemperature=limitT, Type=Lower, LimitedCells=0, CellsPercent=0, Tmin=250, UnlimitedTmin=300.19308
limitTemperature=limitT, Type=Upper, LimitedCells=0, CellsPercent=0, Tmax=600, UnlimitedTmax=300.36926
limitTemperature=limitT, Type=Lower, LimitedCells=0, CellsPercent=0, Tmin=250, UnlimitedTmin=302.86778
limitTemperature=limitT, Type=Upper, LimitedCells=0, CellsPercent=0, Tmax=600, UnlimitedTmax=304.2106
limitTemperature=limitT, Type=Lower, LimitedCells=0, CellsPercent=0, Tmin=250, UnlimitedTmin=304.64022
limitTemperature=limitT, Type=Upper, LimitedCells=0, CellsPercent=0, Tmax=600, UnlimitedTmax=306.24772
limitTemperature=limitT, Type=Lower, LimitedCells=0, CellsPercent=0, Tmin=250, UnlimitedTmin=304.82423
limitTemperature=limitT, Type=Upper, LimitedCells=0, CellsPercent=0, Tmax=600, UnlimitedTmax=308.3148
DICPBiCGStab:  Solving for p_rgh, Initial residual = 0.10022293, Final residual = 0.0099270038, No Iterations 119
time step continuity errors : sum local = 0.025966275, global = 0.0032279076, cumulative = 0.0071791828
Min/max rho:1.1610483 1.1770335
DILUPBiCGStab:  Solving for epsilon, Initial residual = 0.80674419, Final residual = 0.0026599192, No Iterations 1
DILUPBiCGStab:  Solving for k, Initial residual = 0.8555679, Final residual = 0.017814044, No Iterations 1
ExecutionTime = 0.5 s  ClockTime = 1 s

volFieldValue fluid write:
    volAverage(fluid) of T = 300.00048

volFieldValue pcb write:
    volAverage(pcb) of T = 300.05789

volFieldValue component_0 write:
    volAverage(component_0) of T = 300.21085

volFieldValue component_1 write:
    volAverage(component_1) of T = 300.62586

volFieldValue component_2 write:
    volAverage(component_2) of T = 306.45559

volFieldValue component_3 write:
    volAverage(component_3) of T = 309.86702

volFieldValue component_4 write:
    volAverage(component_4) of T = 312.82766

Time = 3


Solving for fluid region fluid
DILUPBiCGStab:  Solving for Ux, Initial residual = 0.44090746, Final residual = 0.011051946, No Iterations 2
DILUPBiCGStab:  Solving for Uy, Initial residual = 0.36635098, Final residual = 0.0067750261, No Iterations 2

Solving energy coupled regions
Using lduPrimitiveAssembly: lduAssembly456789
DILUPBiCGStab:  Solving for h, Initial residual = 0.013843046, Final residual = 0.00027415989, No Iterations 1
limitTemperature=limitT, Type=Lower, LimitedCells=0, CellsPercent=0, Tmin=250, UnlimitedTmin=299.99177
limitTemperature=limitT, Type=Upper, LimitedCells=0, CellsPercent=0, Tmax=6000, UnlimitedTmax=300.09562
limitTemperature=limitT, Type=Lower, LimitedCells=0, CellsPercent=0, Tmin=250, UnlimitedTmin=299.98598
limitTemperature=limitT, Type=Upper, LimitedCells=0, CellsPercent=0, Tmax=6000, UnlimitedTmax=301.32377
limitTemperature=limitT, Type=Lower, LimitedCells=0, CellsPercent=0, Tmin=250, UnlimitedTmin=300.16361
limitTemperature=limitT, Type=Upper, LimitedCells=0, CellsPercent=0, Tmax=600, UnlimitedTmax=300.25584
limitTemperature=limitT, Type=Lower, LimitedCells=0, CellsPercent=0, Tmin=250, UnlimitedTmin=300.41195
limitTemperature=limitT, Type=Upper, LimitedCells=0, CellsPercent=0, Tmax=600, UnlimitedTmax=300.71951
limitTemperature=limitT, Type=Lower, LimitedCells=0, CellsPercent=0, Tmin=250, UnlimitedTmin=305.83747
limitTemperature=limitT, Type=Upper, LimitedCells=0, CellsPercent=0, Tmax=600, UnlimitedTmax=307.94235
limitTemperature=limitT, Type=Lower, LimitedCells=0, CellsPercent=0, Tmin=250, UnlimitedTmin=309.34989
limitTemperature=limitT, Type=Upper, LimitedCells=0, CellsPercent=0, Tmax=600, UnlimitedTmax=311.57434
limitTemperature=limitT, Type=Lower, LimitedCells=0, CellsPercent=0, Tmin=250, UnlimitedTmin=310.27808
limitTemperature=limitT, Type=Upper, LimitedCells=0, CellsPercent=0, Tmax=600, UnlimitedTmax=315.52473
DICPBiCGStab:  Solving for p_rgh, Initial residual = 0.069575723, Final residual = 0.006847464, No Iterations 18
time step continuity errors : sum local = 0.032033551, global = 0.0026601276, cumulative = 0.0098393104
Min/max rho:1.1401915 1.177511
DILUPBiCGStab:  Solving for epsilon, Initial residual = 0.69987463, Final residual = 0.0041436961, No Iterations 1
DILUPBiCGStab:  Solving for k, Initial residual = 0.67071287, Final residual = 0.017679356, No Iterations 1
ExecutionTime = 0.58 s  ClockTime = 1 s

volFieldValue fluid write:
    volAverage(fluid) of T = 300.00179

volFieldValue pcb write:
    volAverage(pcb) of T = 300.11104

volFieldValue component_0 write:
    volAverage(component_0) of T = 300.31197

volFieldValue component_1 write:
    volAverage(component_1) of T = 300.92247

volFieldValue component_2 write:
    volAverage(component_2) of T = 309.26015

volFieldValue component_3 write:
    volAverage(component_3) of T = 313.48891

volFieldValue component_4 write:
    volAverage(component_4) of T = 318.25303

Time = 4


Solving for fluid region fluid
DILUPBiCGStab:  Solving for Ux, Initial residual = 0.26703126, Final residual = 0.0062726156, No Iterations 2
DILUPBiCGStab:  Solving for Uy, Initial residual = 0.22319173, Final residual = 0.0041473908, No Iterations 2

Solving energy coupled regions
Using lduPrimitiveAssembly: lduAssembly456789
DILUPBiCGStab:  Solving for h, Initial residual = 0.013675989, Final residual = 0.00030551939, No Iterations 1
limitTemperature=limitT, Type=Lower, LimitedCells=0, CellsPercent=0, Tmin=250, UnlimitedTmin=299.99442
limitTemperature=limitT, Type=Upper, LimitedCells=0, CellsPercent=0, Tmax=6000, UnlimitedTmax=300.79914
limitTemperature=limitT, Type=Lower, LimitedCells=0, CellsPercent=0, Tmin=250, UnlimitedTmin=299.99318
limitTemperature=limitT, Type=Upper, LimitedCells=0, CellsPercent=0, Tmax=6000, UnlimitedTmax=302.36837
limitTemperature=limitT, Type=Lower, LimitedCells=0, CellsPercent=0, Tmin=250, UnlimitedTmin=300.25325
limitTemperature=limitT, Type=Upper, LimitedCells=0, CellsPercent=0, Tmax=600, UnlimitedTmax=300.37532
limitTemperature=limitT, Type=Lower, LimitedCells=0, CellsPercent=0, Tmin=250, UnlimitedTmin=300.63179
limitTemperature=limitT, Type=Upper, LimitedCells=0, CellsPercent=0, Tmax=600, UnlimitedTmax=301.05678
limitTemperature=limitT, Type=Lower, LimitedCells=0, CellsPercent=0, Tmin=250, UnlimitedTmin=308.27304
limitTemperature=limitT, Type=Upper, LimitedCells=0, CellsPercent=0, Tmax=600, UnlimitedTmax=310.59942
limitTemperature=limitT, Type=Lower, LimitedCells=0, CellsPercent=0, Tmin=250, UnlimitedTmin=306.20318
limitTemperature=limitT, Type=Upper, LimitedCells=0, CellsPercent=0, Tmax=600, UnlimitedTmax=315.92328
limitTemperature=limitT, Type=Lower, LimitedCells=0, CellsPercent=0, Tmin=250, UnlimitedTmin=315.04491
limitTemperature=limitT, Type=Upper, LimitedCells=0, CellsPercent=0, Tmax=600, UnlimitedTmax=321.12459
DICPBiCGStab:  Solving for p_rgh, Initial residual = 0.10277759, Final residual = 0.0086795119, No Iterations 11
time step continuity errors : sum local = 0.041836981, global = 0.0045191385, cumulative = 0.014358449
Min/max rho:1.1199982 1.1777469
DILUPBiCGStab:  Solving for epsilon, Initial residual = 0.55295281, Final residual = 0.0061095729, No Iterations 1
DILUPBiCGStab:  Solving for k, Initial residual = 0.50328793, Final residual = 0.017322958, No Iterations 1
ExecutionTime = 0.61 s  ClockTime = 1 s

volFieldValue fluid write:
    volAverage(fluid) of T = 300.00353

volFieldValue pcb write:
    volAverage(pcb) of T = 300.17713

volFieldValue component_0 write:
    volAverage(component_0) of T = 300.41036

volFieldValue component_1 write:
    volAverage(component_1) of T = 301.208

volFieldValue component_2 write:
    volAverage(component_2) of T = 311.80475

volFieldValue component_3 write:
    volAverage(component_3) of T = 316.29156

volFieldValue component_4 write:
    volAverage(component_4) of T = 323.16027

Time = 5


Solving for fluid region fluid
DILUPBiCGStab:  Solving for Ux, Initial residual = 0.17034657, Final residual = 0.0039248221, No Iterations 2
DILUPBiCGStab:  Solving for Uy, Initial residual = 0.12621557, Final residual = 0.0033827392, No Iterations 2

Solving energy coupled regions
Using lduPrimitiveAssembly: lduAssembly456789
DILUPBiCGStab:  Solving for h, Initial residual = 0.012699646, Final residual = 0.00026372812, No Iterations 1
limitTemperature=limitT, Type=Lower, LimitedCells=0, CellsPercent=0, Tmin=250, UnlimitedTmin=299.99656
limitTemperature=limitT, Type=Upper, LimitedCells=0, CellsPercent=0, Tmax=6000, UnlimitedTmax=301.3423
limitTemperature=limitT, Type=Lower, LimitedCells=0, CellsPercent=0, Tmin=250, UnlimitedTmin=299.99704
limitTemperature=limitT, Type=Upper, LimitedCells=0, CellsPercent=0, Tmax=6000, UnlimitedTmax=303.56279
limitTemperature=limitT, Type=Lower, LimitedCells=0, CellsPercent=0, Tmin=250, UnlimitedTmin=300.34338
limitTemperature=limitT, Type=Upper, LimitedCells=0, CellsPercent=0, Tmax=600, UnlimitedTmax=300.49103
limitTemperature=limitT, Type=Lower, LimitedCells=0, CellsPercent=0, Tmin=250, UnlimitedTmin=300.85035
limitTemperature=limitT, Type=Upper, LimitedCells=0, CellsPercent=0, Tmax=600, UnlimitedTmax=301.38824
limitTemperature=limitT, Type=Lower, LimitedCells=0, CellsPercent=0, Tmin=250, UnlimitedTmin=308.06452
limitTemperature=limitT, Type=Upper, LimitedCells=0, CellsPercent=0, Tmax=600, UnlimitedTmax=313.86144
limitTemperature=limitT, Type=Lower, LimitedCells=0, CellsPercent=0, Tmin=250, UnlimitedTmin=299.29791
limitTemperature=limitT, Type=Upper, LimitedCells=0, CellsPercent=0, Tmax=600, UnlimitedTmax=320.8793
limitTemperature=limitT, Type=Lower, LimitedCells=0, CellsPercent=0, Tmin=250, UnlimitedTmin=318.69018
limitTemperature=limitT, Type=Upper, LimitedCells=0, CellsPercent=0, Tmax=600, UnlimitedTmax=326.08443
DICPBiCGStab:  Solving for p_rgh, Initial residual = 0.11268481, Final residual = 0.010917137, No Iterations 21
time step continuity errors : sum local = 0.052194678, global = 0.016044204, cumulative = 0.030402653
Min/max rho:1.1015348 1.1778534
DILUPBiCGStab:  Solving for epsilon, Initial residual = 0.349512, Final residual = 0.0061079251, No Iterations 1
DILUPBiCGStab:  Solving for k, Initial residual = 0.37729877, Final residual = 0.015448722, No Iterations 1
ExecutionTime = 0.69 s  ClockTime = 1 s

volFieldValue fluid write:
    volAverage(fluid) of T = 300.0045

volFieldValue pcb write:
    volAverage(pcb) of T = 300.25052

volFieldValue component_0 write:
    volAverage(component_0) of T = 300.50729

volFieldValue component_1 write:
    volAverage(component_1) of T = 301.48738

volFieldValue component_2 write:
    volAverage(component_2) of T = 314.26445

volFieldValue component_3 write:
    volAverage(component_3) of T = 319.23901

volFieldValue component_4 write:
    volAverage(component_4) of T = 327.88453

Time = 6


Solving for fluid region fluid
DILUPBiCGStab:  Solving for Ux, Initial residual = 0.12664754, Final residual = 0.0029207365, No Iterations 2
DILUPBiCGStab:  Solving for Uy, Initial residual = 0.064619517, Final residual = 0.0026991474, No Iterations 2

Solving energy coupled regions
Using lduPrimitiveAssembly: lduAssembly456789
DILUPBiCGStab:  Solving for h, Initial residual = 0.012297029, Final residual = 0.00024282049, No Iterations 1
limitTemperature=limitT, Type=Lower, LimitedCells=0, CellsPercent=0, Tmin=250, UnlimitedTmin=299.99708
limitTemperature=limitT, Type=Upper, LimitedCells=0, CellsPercent=0, Tmax=6000, UnlimitedTmax=300.70672
limitTemperature=limitT, Type=Lower, LimitedCells=0, CellsPercent=0, Tmin=250, UnlimitedTmin=299.99717
limitTemperature=limitT, Type=Upper, LimitedCells=0, CellsPercent=0, Tmax=6000, UnlimitedTmax=304.90851
limitTemperature=limitT, Type=Lower, LimitedCells=0, CellsPercent=0, Tmin=250, UnlimitedTmin=300.42706
limitTemperature=limitT, Type=Upper, LimitedCells=0, CellsPercent=0, Tmax=600, UnlimitedTmax=300.60449
limitTemperature=limitT, Type=Lower, LimitedCells=0, CellsPercent=0, Tmin=250, UnlimitedTmin=300.93765
limitTemperature=limitT, Type=Upper, LimitedCells=0, CellsPercent=0, Tmax=600, UnlimitedTmax=301.71605
limitTemperature=limitT, Type=Lower, LimitedCells=0, CellsPercent=0, Tmin=250, UnlimitedTmin=308.62889
limitTemperature=limitT, Type=Upper, LimitedCells=0, CellsPercent=0, Tmax=600, UnlimitedTmax=317.05198
limitTemperature=limitT, Type=Lower, LimitedCells=0, CellsPercent=0, Tmin=250, UnlimitedTmin=300.9634
limitTemperature=limitT, Type=Upper, LimitedCells=0, CellsPercent=0, Tmax=600, UnlimitedTmax=325.70276
limitTemperature=limitT, Type=Lower, LimitedCells=0, CellsPercent=0, Tmin=250, UnlimitedTmin=321.86622
limitTemperature=limitT, Type=Upper, LimitedCells=0, CellsPercent=0, Tmax=600, UnlimitedTmax=331.17036
DICPBiCGStab:  Solving for p_rgh, Initial residual = 0.11865818, Final residual = 0.011214994, No Iterations 63
time step continuity errors : sum local = 0.050436751, global = 0.049448961, cumulative = 0.079851615
Min/max rho:1.0840123 1.1778919
DILUPBiCGStab:  Solving for epsilon, Initial residual = 0.22169104, Final residual = 0.0051042277, No Iterations 1
DILUPBiCGStab:  Solving for k, Initial residual = 0.29064837, Final residual = 0.012921286, No Iterations 1
ExecutionTime = 0.79 s  ClockTime = 1 s

volFieldValue fluid write:
    volAverage(fluid) of T = 300.00545

volFieldValue pcb write:
    volAverage(pcb) of T = 300.33329

volFieldValue component_0 write:
    volAverage(component_0) of T = 300.60303

volFieldValue component_1 write:
    volAverage(component_1) of T = 301.76196

volFieldValue component_2 write:
    volAverage(component_2) of T = 316.68268

volFieldValue component_3 write:
    volAverage(component_3) of T = 322.58462

volFieldValue component_4 write:
    volAverage(component_4) of T = 332.48658

Time = 7


Solving for fluid region fluid
DILUPBiCGStab:  Solving for Ux, Initial residual = 0.10516275, Final residual = 0.0023140163, No Iterations 2
DILUPBiCGStab:  Solving for Uy, Initial residual = 0.043782519, Final residual = 0.00090423647, No Iterations 2

Solving energy coupled regions
Using lduPrimitiveAssembly: lduAssembly456789
DILUPBiCGStab:  Solving for h, Initial residual = 0.012054208, Final residual = 0.00022740219, No Iterations 1
limitTemperature=limitT, Type=Lower, LimitedCells=0, CellsPercent=0, Tmin=250, UnlimitedTmin=299.99709
limitTemperature=limitT, Type=Upper, LimitedCells=0, CellsPercent=0, Tmax=6000, UnlimitedTmax=300.93433
limitTemperature=limitT, Type=Lower, LimitedCells=0, CellsPercent=0, Tmin=250, UnlimitedTmin=299.99658
limitTemperature=limitT, Type=Upper, LimitedCells=0, CellsPercent=0, Tmax=6000, UnlimitedTmax=306.39177
limitTemperature=limitT, Type=Lower, LimitedCells=0, CellsPercent=0, Tmin=250, UnlimitedTmin=300.49004
limitTemperature=limitT, Type=Upper, LimitedCells=0, CellsPercent=0, Tmax=600, UnlimitedTmax=300.71607
limitTemperature=limitT, Type=Lower, LimitedCells=0, CellsPercent=0, Tmin=250, UnlimitedTmin=301.04878
limitTemperature=limitT, Type=Upper, LimitedCells=0, CellsPercent=0, Tmax=600, UnlimitedTmax=302.04353
limitTemperature=limitT, Type=Lower, LimitedCells=0, CellsPercent=0, Tmin=250, UnlimitedTmin=310.11107
limitTemperature=limitT, Type=Upper, LimitedCells=0, CellsPercent=0, Tmax=600, UnlimitedTmax=320.17092
limitTemperature=limitT, Type=Lower, LimitedCells=0, CellsPercent=0, Tmin=250, UnlimitedTmin=309.84342
limitTemperature=limitT, Type=Upper, LimitedCells=0, CellsPercent=0, Tmax=600, UnlimitedTmax=330.36396
limitTemperature=limitT, Type=Lower, LimitedCells=0, CellsPercent=0, Tmin=250, UnlimitedTmin=325.22031
limitTemperature=limitT, Type=Upper, LimitedCells=0, CellsPercent=0, Tmax=600, UnlimitedTmax=336.22761
DICPBiCGStab:  Solving for p_rgh, Initial residual = 0.1353599, Final residual = 0.012330085, No Iterations 109
time step continuity errors : sum local = 0.042442709, global = 0.005013059, cumulative = 0.084864674
Min/max rho:1.0674359 1.1778002
DILUPBiCGStab:  Solving for epsilon, Initial residual = 0.15832663, Final residual = 0.0034459885, No Iterations 1
DILUPBiCGStab:  Solving for k, Initial residual = 0.24496979, Final residual = 0.0093860021, No Iterations 1
ExecutionTime = 0.91 s  ClockTime = 1 s

volFieldValue fluid write:
    volAverage(fluid) of T = 300.00642

volFieldValue pcb write:
    volAverage(pcb) of T = 300.4267

volFieldValue component_0 write:
    volAverage(component_0) of T = 300.69776

volFieldValue component_1 write:
    volAverage(component_1) of T = 302.03219

volFieldValue component_2 write:
    volAverage(component_2) of T = 319.05109

volFieldValue component_3 write:
    volAverage(component_3) of T = 325.89541

volFieldValue component_4 write:
    volAverage(component_4) of T = 336.98048

Time = 8


Solving for fluid region fluid
DILUPBiCGStab:  Solving for Ux, Initial residual = 0.08440807, Final residual = 0.0022418474, No Iterations 2
DILUPBiCGStab:  Solving for Uy, Initial residual = 0.10728683, Final residual = 0.0026852048, No Iterations 2

Solving energy coupled regions
Using lduPrimitiveAssembly: lduAssembly456789
DILUPBiCGStab:  Solving for h, Initial residual = 0.012047428, Final residual = 0.00024272155, No Iterations 1
limitTemperature=limitT, Type=Lower, LimitedCells=0, CellsPercent=0, Tmin=250, UnlimitedTmin=299.99642
limitTemperature=limitT, Type=Upper, LimitedCells=0, CellsPercent=0, Tmax=6000, UnlimitedTmax=300.82907
limitTemperature=limitT, Type=Lower, LimitedCells=0, CellsPercent=0, Tmin=250, UnlimitedTmin=299.99583
limitTemperature=limitT, Type=Upper, LimitedCells=0, CellsPercent=0, Tmax=6000, UnlimitedTmax=307.99567
limitTemperature=limitT, Type=Lower, LimitedCells=0, CellsPercent=0, Tmin=250, UnlimitedTmin=300.55135
limitTemperature=limitT, Type=Upper, LimitedCells=0, CellsPercent=0, Tmax=600, UnlimitedTmax=300.82615
limitTemperature=limitT, Type=Lower, LimitedCells=0, CellsPercent=0, Tmin=250, UnlimitedTmin=301.17302
limitTemperature=limitT, Type=Upper, LimitedCells=0, CellsPercent=0, Tmax=600, UnlimitedTmax=302.37001
limitTemperature=limitT, Type=Lower, LimitedCells=0, CellsPercent=0, Tmin=250, UnlimitedTmin=311.85391
limitTemperature=limitT, Type=Upper, LimitedCells=0, CellsPercent=0, Tmax=600, UnlimitedTmax=323.21654
limitTemperature=limitT, Type=Lower, LimitedCells=0, CellsPercent=0, Tmin=250, UnlimitedTmin=312.64768
limitTemperature=limitT, Type=Upper, LimitedCells=0, CellsPercent=0, Tmax=600, UnlimitedTmax=334.89125
limitTemperature=limitT, Type=Lower, LimitedCells=0, CellsPercent=0, Tmin=250, UnlimitedTmin=328.37469
limitTemperature=limitT, Type=Upper, LimitedCells=0, CellsPercent=0, Tmax=600, UnlimitedTmax=341.37287
DICPBiCGStab:  Solving for p_rgh, Initial residual = 0.28771222, Final residual = 0.028067673, No Iterations 62
time step continuity errors : sum local = 0.051029458, global = -0.0016535196, cumulative = 0.083211154
Min/max rho:1.0516366 1.1770902
DILUPBiCGStab:  Solving for epsilon, Initial residual = 0.10632779, Final residual = 0.0026061696, No Iterations 1
DILUPBiCGStab:  Solving for k, Initial residual = 0.20110286, Final residual = 0.0080118513, No Iterations 1
ExecutionTime = 1.01 s  ClockTime = 1 s

volFieldValue fluid write:
    volAverage(fluid) of T = 300.00825

volFieldValue pcb write:
    volAverage(pcb) of T = 300.53051

volFieldValue component_0 write:
    volAverage(component_0) of T = 300.79157

volFieldValue component_1 write:
    volAverage(component_1) of T = 302.29836

volFieldValue component_2 write:
    volAverage(component_2) of T = 321.36429

volFieldValue component_3 write:
    volAverage(component_3) of T = 328.82836

volFieldValue component_4 write:
    volAverage(component_4) of T = 341.31267

Time = 9


Solving for fluid region fluid
DILUPBiCGStab:  Solving for Ux, Initial residual = 0.17718413, Final residual = 0.0041844372, No Iterations 2
DILUPBiCGStab:  Solving for Uy, Initial residual = 0.14145756, Final residual = 0.0029505615, No Iterations 2

Solving energy coupled regions
Using lduPrimitiveAssembly: lduAssembly456789
DILUPBiCGStab:  Solving for h, Initial residual = 0.011672999, Final residual = 0.00023945287, No Iterations 1
limitTemperature=limitT, Type=Lower, LimitedCells=0, CellsPercent=0, Tmin=250, UnlimitedTmin=299.99483
limitTemperature=limitT, Type=Upper, LimitedCells=0, CellsPercent=0, Tmax=6000, UnlimitedTmax=301.16754
limitTemperature=limitT, Type=Lower, LimitedCells=0, CellsPercent=0, Tmin=250, UnlimitedTmin=299.9944
limitTemperature=limitT, Type=Upper, LimitedCells=0, CellsPercent=0, Tmax=6000, UnlimitedTmax=309.69912
limitTemperature=limitT, Type=Lower, LimitedCells=0, CellsPercent=0, Tmin=250, UnlimitedTmin=300.6112
limitTemperature=limitT, Type=Upper, LimitedCells=0, CellsPercent=0, Tmax=600, UnlimitedTmax=300.93482
limitTemperature=limitT, Type=Lower, LimitedCells=0, CellsPercent=0, Tmin=250, UnlimitedTmin=301.25659
limitTemperature=limitT, Type=Upper, LimitedCells=0, CellsPercent=0, Tmax=600, UnlimitedTmax=302.69405
limitTemperature=limitT, Type=Lower, LimitedCells=0, CellsPercent=0, Tmin=250, UnlimitedTmin=313.37712
limitTemperature=limitT, Type=Upper, LimitedCells=0, CellsPercent=0, Tmax=600, UnlimitedTmax=326.18588
limitTemperature=limitT, Type=Lower, LimitedCells=0, CellsPercent=0, Tmin=250, UnlimitedTmin=309.01125
limitTemperature=limitT, Type=Upper, LimitedCells=0, CellsPercent=0, Tmax=600, UnlimitedTmax=339.26881
limitTemperature=limitT, Type=Lower, LimitedCells=0, CellsPercent=0, Tmin=250, UnlimitedTmin=331.22442
limitTemperature=limitT, Type=Upper, LimitedCells=0, CellsPercent=0, Tmax=600, UnlimitedTmax=346.36101
DICPBiCGStab:  Solving for p_rgh, Initial residual = 0.13641407, Final residual = 0.012951297, No Iterations 11
time step continuity errors : sum local = 0.062457481, global = 0.031200398, cumulative = 0.11441155
Min/max rho:1.0367816 1.1766831
DILUPBiCGStab:  Solving for epsilon, Initial residual = 0.073260769, Final residual = 0.0022084065, No Iterations 1
DILUPBiCGStab:  Solving for k, Initial residual = 0.16521218, Final residual = 0.0073732712, No Iterations 1
ExecutionTime = 1.07 s  ClockTime = 1 s

volFieldValue fluid write:
    volAverage(fluid) of T = 300.01039

volFieldValue pcb write:
    volAverage(pcb) of T = 300.64665

volFieldValue component_0 write:
    volAverage(component_0) of T = 300.88473

volFieldValue component_1 write:
    volAverage(component_1) of T = 302.56091

volFieldValue component_2 write:
    volAverage(component_2) of T = 323.64505

volFieldValue component_3 write:
    volAverage(component_3) of T = 331.52264

volFieldValue component_4 write:
    volAverage(component_4) of T = 345.51123

Time = 10


Solving for fluid region fluid
DILUPBiCGStab:  Solving for Ux, Initial residual = 0.19081646, Final residual = 0.0042266219, No Iterations 2
DILUPBiCGStab:  Solving for Uy, Initial residual = 0.11517247, Final residual = 0.0023973456, No Iterations 2

Solving energy coupled regions
Using lduPrimitiveAssembly: lduAssembly456789
DILUPBiCGStab:  Solving for h, Initial residual = 0.01124591, Final residual = 0.00021647977, No Iterations 1
limitTemperature=limitT, Type=Lower, LimitedCells=0, CellsPercent=0, Tmin=250, UnlimitedTmin=299.99517
limitTemperature=limitT, Type=Upper, LimitedCells=0, CellsPercent=0, Tmax=6000, UnlimitedTmax=302.54009
limitTemperature=limitT, Type=Lower, LimitedCells=0, CellsPercent=0, Tmin=250, UnlimitedTmin=299.99513
limitTemperature=limitT, Type=Upper, LimitedCells=0, CellsPercent=0, Tmax=6000, UnlimitedTmax=311.49382
limitTemperature=limitT, Type=Lower, LimitedCells=0, CellsPercent=0, Tmin=250, UnlimitedTmin=300.66981
limitTemperature=limitT, Type=Upper, LimitedCells=0, CellsPercent=0, Tmax=600, UnlimitedTmax=301.0424
limitTemperature=limitT, Type=Lower, LimitedCells=0, CellsPercent=0, Tmin=250, UnlimitedTmin=301.33631
limitTemperature=limitT, Type=Upper, LimitedCells=0, CellsPercent=0, Tmax=600, UnlimitedTmax=303.01573
limitTemperature=limitT, Type=Lower, LimitedCells=0, CellsPercent=0, Tmin=250, UnlimitedTmin=314.34044
limitTemperature=limitT, Type=Upper, LimitedCells=0, CellsPercent=0, Tmax=600, UnlimitedTmax=329.08348
limitTemperature=limitT, Type=Lower, LimitedCells=0, CellsPercent=0, Tmin=250, UnlimitedTmin=304.38878
limitTemperature=limitT, Type=Upper, LimitedCells=0, CellsPercent=0, Tmax=600, UnlimitedTmax=343.5235
limitTemperature=limitT, Type=Lower, LimitedCells=0, CellsPercent=0, Tmin=250, UnlimitedTmin=333.74235
limitTemperature=limitT, Type=Upper, LimitedCells=0, CellsPercent=0, Tmax=600, UnlimitedTmax=351.20057
DICPBiCGStab:  Solving for p_rgh, Initial residual = 0.18975445, Final residual = 0.018432904, No Iterations 12
time step continuity errors : sum local = 0.079033897, global = 0.025122844, cumulative = 0.1395344
Min/max rho:1.0227313 1.1766699
DILUPBiCGStab:  Solving for epsilon, Initial residual = 0.059407328, Final residual = 0.0020353043, No Iterations 1
DILUPBiCGStab:  Solving for k, Initial residual = 0.15096729, Final residual = 0.0073610173, No Iterations 1
ExecutionTime = 1.11 s  ClockTime = 1 s

volFieldValue fluid write:
    volAverage(fluid) of T = 300.01405

volFieldValue pcb write:
    volAverage(pcb) of T = 300.77638

volFieldValue component_0 write:
    volAverage(component_0) of T = 300.97729

volFieldValue component_1 write:
    volAverage(component_1) of T = 302.82084

volFieldValue component_2 write:
    volAverage(component_2) of T = 325.91643

volFieldValue component_3 write:
    volAverage(component_3) of T = 334.33523

volFieldValue component_4 write:
    volAverage(component_4) of T = 349.68292

Time = 11


Solving for fluid region fluid
DILUPBiCGStab:  Solving for Ux, Initial residual = 0.22578902, Final residual = 0.0050268116, No Iterations 2
DILUPBiCGStab:  Solving for Uy, Initial residual = 0.10013813, Final residual = 0.0025070468, No Iterations 2

Solving energy coupled regions
Using lduPrimitiveAssembly: lduAssembly456789
DILUPBiCGStab:  Solving for h, Initial residual = 0.011412813, Final residual = 0.0003147526, No Iterations 1
limitTemperature=limitT, Type=Lower, LimitedCells=0, CellsPercent=0, Tmin=250, UnlimitedTmin=299.99494
limitTemperature=limitT, Type=Upper, LimitedCells=0, CellsPercent=0, Tmax=6000, UnlimitedTmax=303.09049
limitTemperature=limitT, Type=Lower, LimitedCells=0, CellsPercent=0, Tmin=250, UnlimitedTmin=299.99916
limitTemperature=limitT, Type=Upper, LimitedCells=0, CellsPercent=0, Tmax=6000, UnlimitedTmax=313.38455
limitTemperature=limitT, Type=Lower, LimitedCells=0, CellsPercent=0, Tmin=250, UnlimitedTmin=300.72889
limitTemperature=limitT, Type=Upper, LimitedCells=0, CellsPercent=0, Tmax=600, UnlimitedTmax=301.1492
limitTemperature=limitT, Type=Lower, LimitedCells=0, CellsPercent=0, Tmin=250, UnlimitedTmin=301.44868
limitTemperature=limitT, Type=Upper, LimitedCells=0, CellsPercent=0, Tmax=600, UnlimitedTmax=303.33522
limitTemperature=limitT, Type=Lower, LimitedCells=0, CellsPercent=0, Tmin=250, UnlimitedTmin=315.06389
limitTemperature=limitT, Type=Upper, LimitedCells=0, CellsPercent=0, Tmax=600, UnlimitedTmax=331.91722
limitTemperature=limitT, Type=Lower, LimitedCells=0, CellsPercent=0, Tmin=250, UnlimitedTmin=307.14289
limitTemperature=limitT, Type=Upper, LimitedCells=0, CellsPercent=0, Tmax=600, UnlimitedTmax=347.65773
limitTemperature=limitT, Type=Lower, LimitedCells=0, CellsPercent=0, Tmin=250, UnlimitedTmin=336.31719
limitTemperature=limitT, Type=Upper, LimitedCells=0, CellsPercent=0, Tmax=600, UnlimitedTmax=355.94951
DICPBiCGStab:  Solving for p_rgh, Initial residual = 0.18681566, Final residual = 0.017867516, No Iterations 37
time step continuity errors : sum local = 0.078809848, global = -0.02670361, cumulative = 0.11283079
Min/max rho:1.0092787 1.1766626
DILUPBiCGStab:  Solving for epsilon, Initial residual = 0.052325115, Final residual = 0.0018750547, No Iterations 1
DILUPBiCGStab:  Solving for k, Initial residual = 0.1400414, Final residual = 0.0016974427, No Iterations 2
ExecutionTime = 1.19 s  ClockTime = 1 s

volFieldValue fluid write:
    volAverage(fluid) of T = 300.01862

volFieldValue pcb write:
    volAverage(pcb) of T = 300.92066

volFieldValue component_0 write:
    volAverage(component_0) of T = 301.06875

volFieldValue component_1 write:
    volAverage(component_1) of T = 303.07774

volFieldValue component_2 write:
    volAverage(component_2) of T = 328.0766

volFieldValue component_3 write:
    volAverage(component_3) of T = 337.09685

volFieldValue component_4 write:
    volAverage(component_4) of T = 353.71396

Time = 12


Solving for fluid region fluid
DILUPBiCGStab:  Solving for Ux, Initial residual = 0.2529239, Final residual = 0.0051645622, No Iterations 2
DILUPBiCGStab:  Solving for Uy, Initial residual = 0.10579334, Final residual = 0.0026190411, No Iterations 2

Solving energy coupled regions
Using lduPrimitiveAssembly: lduAssembly456789
DILUPBiCGStab:  Solving for h, Initial residual = 0.010994406, Final residual = 0.00026917153, No Iterations 1
limitTemperature=limitT, Type=Lower, LimitedCells=0, CellsPercent=0, Tmin=250, UnlimitedTmin=299.99475
limitTemperature=limitT, Type=Upper, LimitedCells=0, CellsPercent=0, Tmax=6000, UnlimitedTmax=305.15427
limitTemperature=limitT, Type=Lower, LimitedCells=0, CellsPercent=0, Tmin=250, UnlimitedTmin=299.99984
limitTemperature=limitT, Type=Upper, LimitedCells=0, CellsPercent=0, Tmax=6000, UnlimitedTmax=315.34942
limitTemperature=limitT, Type=Lower, LimitedCells=0, CellsPercent=0, Tmin=250, UnlimitedTmin=300.78877
limitTemperature=limitT, Type=Upper, LimitedCells=0, CellsPercent=0, Tmax=600, UnlimitedTmax=301.25451
limitTemperature=limitT, Type=Lower, LimitedCells=0, CellsPercent=0, Tmin=250, UnlimitedTmin=301.60211
limitTemperature=limitT, Type=Upper, LimitedCells=0, CellsPercent=0, Tmax=600, UnlimitedTmax=303.65294
limitTemperature=limitT, Type=Lower, LimitedCells=0, CellsPercent=0, Tmin=250, UnlimitedTmin=315.96566
limitTemperature=limitT, Type=Upper, LimitedCells=0, CellsPercent=0, Tmax=600, UnlimitedTmax=334.69194
limitTemperature=limitT, Type=Lower, LimitedCells=0, CellsPercent=0, Tmin=250, UnlimitedTmin=311.34565
limitTemperature=limitT, Type=Upper, LimitedCells=0, CellsPercent=0, Tmax=600, UnlimitedTmax=351.64998
limitTemperature=limitT, Type=Lower, LimitedCells=0, CellsPercent=0, Tmin=250, UnlimitedTmin=339.06376
limitTemperature=limitT, Type=Upper, LimitedCells=0, CellsPercent=0, Tmax=600, UnlimitedTmax=360.64735
DICPBiCGStab:  Solving for p_rgh, Initial residual = 0.12824702, Final residual = 0.012561032, No Iterations 35
time step continuity errors : sum local = 0.072109432, global = -0.045978008, cumulative = 0.066852778
Min/max rho:0.99703865 1.1766588
DILUPBiCGStab:  Solving for epsilon, Initial residual = 0.046508317, Final residual = 0.001492298, No Iterations 1
DILUPBiCGStab:  Solving for k, Initial residual = 0.12887496, Final residual = 0.0060073799, No Iterations 1
ExecutionTime = 1.28 s  ClockTime = 1 s

volFieldValue fluid write:
    volAverage(fluid) of T = 300.02132

volFieldValue pcb write:
    volAverage(pcb) of T = 301.07002

volFieldValue component_0 write:
    volAverage(component_0) of T = 301.15946

volFieldValue component_1 write:
    volAverage(component_1) of T = 303.33221

volFieldValue component_2 write:
    volAverage(component_2) of T = 330.0631

volFieldValue component_3 write:
    volAverage(component_3) of T = 339.64124

volFieldValue component_4 write:
    volAverage(component_4) of T = 357.35915

Time = 13


Solving for fluid region fluid
DILUPBiCGStab:  Solving for Ux, Initial residual = 0.25649251, Final residual = 0.0050695849, No Iterations 2
DILUPBiCGStab:  Solving for Uy, Initial residual = 0.13996888, Final residual = 0.0029458295, No Iterations 2

Solving energy coupled regions
Using lduPrimitiveAssembly: lduAssembly456789
DILUPBiCGStab:  Solving for h, Initial residual = 0.011062308, Final residual = 0.00031811919, No Iterations 1
limitTemperature=limitT, Type=Lower, LimitedCells=0, CellsPercent=0, Tmin=250, UnlimitedTmin=299.99483
limitTemperature=limitT, Type=Upper, LimitedCells=0, CellsPercent=0, Tmax=6000, UnlimitedTmax=304.00754
limitTemperature=limitT, Type=Lower, LimitedCells=0, CellsPercent=0, Tmin=250, UnlimitedTmin=300.00001
limitTemperature=limitT, Type=Upper, LimitedCells=0, CellsPercent=0, Tmax=6000, UnlimitedTmax=317.32003
limitTemperature=limitT, Type=Lower, LimitedCells=0, CellsPercent=0, Tmin=250, UnlimitedTmin=300.84516
limitTemperature=limitT, Type=Upper, LimitedCells=0, CellsPercent=0, Tmax=600, UnlimitedTmax=301.35924
limitTemperature=limitT, Type=Lower, LimitedCells=0, CellsPercent=0, Tmin=250, UnlimitedTmin=301.73277
limitTemperature=limitT, Type=Upper, LimitedCells=0, CellsPercent=0, Tmax=600, UnlimitedTmax=303.96666
limitTemperature=limitT, Type=Lower, LimitedCells=0, CellsPercent=0, Tmin=250, UnlimitedTmin=316.91953
limitTemperature=limitT, Type=Upper, LimitedCells=0, CellsPercent=0, Tmax=600, UnlimitedTmax=337.39467
limitTemperature=limitT, Type=Lower, LimitedCells=0, CellsPercent=0, Tmin=250, UnlimitedTmin=312.61204
limitTemperature=limitT, Type=Upper, LimitedCells=0, CellsPercent=0, Tmax=600, UnlimitedTmax=355.5327
limitTemperature=limitT, Type=Lower, LimitedCells=0, CellsPercent=0, Tmin=250, UnlimitedTmin=341.52755
limitTemperature=limitT, Type=Upper, LimitedCells=0, CellsPercent=0, Tmax=600, UnlimitedTmax=365.19426
DICPBiCGStab:  Solving for p_rgh, Initial residual = 0.10423059, Final residual = 0.010171425, No Iterations 47
time step continuity errors : sum local = 0.066389693, global = -0.062647196, cumulative = 0.0042055826
Min/max rho:0.98591268 1.1766596
DILUPBiCGStab:  Solving for epsilon, Initial residual = 0.041241079, Final residual = 0.0013058971, No Iterations 1
DILUPBiCGStab:  Solving for k, Initial residual = 0.11887781, Final residual = 0.0054253231, No Iterations 1
ExecutionTime = 1.38 s  ClockTime = 1 s

volFieldValue fluid write:
    volAverage(fluid) of T = 300.02501

volFieldValue pcb write:
    volAverage(pcb) of T = 301.22068

volFieldValue component_0 write:
    volAverage(component_0) of T = 301.24952

volFieldValue component_1 write:
    volAverage(component_1) of T = 303.5853

volFieldValue component_2 write:
    volAverage(component_2) of T = 331.87402

volFieldValue component_3 write:
    volAverage(component_3) of T = 341.87717

volFieldValue component_4 write:
    volAverage(component_4) of T = 360.74169

Time = 14


Solving for fluid region fluid
DILUPBiCGStab:  Solving for Ux, Initial residual = 0.21071468, Final residual = 0.0038543906, No Iterations 2
DILUPBiCGStab:  Solving for Uy, Initial residual = 0.14340398, Final residual = 0.0029399428, No Iterations 2

Solving energy coupled regions
Using lduPrimitiveAssembly: lduAssembly456789
DILUPBiCGStab:  Solving for h, Initial residual = 0.010508003, Final residual = 0.00028840515, No Iterations 1
limitTemperature=limitT, Type=Lower, LimitedCells=0, CellsPercent=0, Tmin=250, UnlimitedTmin=299.99498
limitTemperature=limitT, Type=Upper, LimitedCells=0, CellsPercent=0, Tmax=6000, UnlimitedTmax=306.15604
limitTemperature=limitT, Type=Lower, LimitedCells=0, CellsPercent=0, Tmin=250, UnlimitedTmin=300.00022
limitTemperature=limitT, Type=Upper, LimitedCells=0, CellsPercent=0, Tmax=6000, UnlimitedTmax=319.29831
limitTemperature=limitT, Type=Lower, LimitedCells=0, CellsPercent=0, Tmin=250, UnlimitedTmin=300.89118
limitTemperature=limitT, Type=Upper, LimitedCells=0, CellsPercent=0, Tmax=600, UnlimitedTmax=301.46263
limitTemperature=limitT, Type=Lower, LimitedCells=0, CellsPercent=0, Tmin=250, UnlimitedTmin=301.83898
limitTemperature=limitT, Type=Upper, LimitedCells=0, CellsPercent=0, Tmax=600, UnlimitedTmax=304.2771
limitTemperature=limitT, Type=Lower, LimitedCells=0, CellsPercent=0, Tmin=250, UnlimitedTmin=317.31465
limitTemperature=limitT, Type=Upper, LimitedCells=0, CellsPercent=0, Tmax=600, UnlimitedTmax=340.02727
limitTemperature=limitT, Type=Lower, LimitedCells=0, CellsPercent=0, Tmin=250, UnlimitedTmin=309.6396
limitTemperature=limitT, Type=Upper, LimitedCells=0, CellsPercent=0, Tmax=600, UnlimitedTmax=359.28652
limitTemperature=limitT, Type=Lower, LimitedCells=0, CellsPercent=0, Tmin=250, UnlimitedTmin=342.92793
limitTemperature=limitT, Type=Upper, LimitedCells=0, CellsPercent=0, Tmax=600, UnlimitedTmax=369.52103
DICPBiCGStab:  Solving for p_rgh, Initial residual = 0.10644391, Final residual = 0.010475663, No Iterations 57
time step continuity errors : sum local = 0.079657337, global = -0.072063134, cumulative = -0.067857551
Min/max rho:0.97457941 1.17666
DILUPBiCGStab:  Solving for epsilon, Initial residual = 0.034344969, Final residual = 0.0010693489, No Iterations 1
DILUPBiCGStab:  Solving for k, Initial residual = 0.10583666, Final residual = 0.0047102958, No Iterations 1
ExecutionTime = 1.48 s  ClockTime = 2 s

volFieldValue fluid write:
    volAverage(fluid) of T = 300.02879

volFieldValue pcb write:
    volAverage(pcb) of T = 301.37764

volFieldValue component_0 write:
    volAverage(component_0) of T = 301.33937

volFieldValue component_1 write:
    volAverage(component_1) of T = 303.83982

volFieldValue component_2 write:
    volAverage(component_2) of T = 333.61214

volFieldValue component_3 write:
    volAverage(component_3) of T = 343.92314

volFieldValue component_4 write:
    volAverage(component_4) of T = 363.90332

Time = 15


Solving for fluid region fluid
DILUPBiCGStab:  Solving for Ux, Initial residual = 0.14002623, Final residual = 0.0027832707, No Iterations 2
DILUPBiCGStab:  Solving for Uy, Initial residual = 0.12567428, Final residual = 0.0024409256, No Iterations 2

Solving energy coupled regions
Using lduPrimitiveAssembly: lduAssembly456789
DILUPBiCGStab:  Solving for h, Initial residual = 0.010154407, Final residual = 0.00026765068, No Iterations 1
limitTemperature=limitT, Type=Lower, LimitedCells=0, CellsPercent=0, Tmin=250, UnlimitedTmin=299.99515
limitTemperature=limitT, Type=Upper, LimitedCells=0, CellsPercent=0, Tmax=6000, UnlimitedTmax=304.12273
limitTemperature=limitT, Type=Lower, LimitedCells=0, CellsPercent=0, Tmin=250, UnlimitedTmin=300.00045
limitTemperature=limitT, Type=Upper, LimitedCells=0, CellsPercent=0, Tmax=6000, UnlimitedTmax=321.29582
limitTemperature=limitT, Type=Lower, LimitedCells=0, CellsPercent=0, Tmin=250, UnlimitedTmin=300.94452
limitTemperature=limitT, Type=Upper, LimitedCells=0, CellsPercent=0, Tmax=600, UnlimitedTmax=301.56549
limitTemperature=limitT, Type=Lower, LimitedCells=0, CellsPercent=0, Tmin=250, UnlimitedTmin=301.93929
limitTemperature=limitT, Type=Upper, LimitedCells=0, CellsPercent=0, Tmax=600, UnlimitedTmax=304.58483
limitTemperature=limitT, Type=Lower, LimitedCells=0, CellsPercent=0, Tmin=250, UnlimitedTmin=317.17784
limitTemperature=limitT, Type=Upper, LimitedCells=0, CellsPercent=0, Tmax=600, UnlimitedTmax=342.59481
limitTemperature=limitT, Type=Lower, LimitedCells=0, CellsPercent=0, Tmin=250, UnlimitedTmin=306.53979
limitTemperature=limitT, Type=Upper, LimitedCells=0, CellsPercent=0, Tmax=600, UnlimitedTmax=362.92596
limitTemperature=limitT, Type=Lower, LimitedCells=0, CellsPercent=0, Tmin=250, UnlimitedTmin=344.27159
limitTemperature=limitT, Type=Upper, LimitedCells=0, CellsPercent=0, Tmax=600, UnlimitedTmax=373.60366
DICPBiCGStab:  Solving for p_rgh, Initial residual = 0.12060474, Final residual = 0.011874583, No Iterations 68
time step continuity errors : sum local = 0.083570086, global = -0.041337046, cumulative = -0.1091946
Min/max rho:0.96484424 1.1766603
DILUPBiCGStab:  Solving for epsilon, Initial residual = 0.025746329, Final residual = 0.00080150107, No Iterations 1
DILUPBiCGStab:  Solving for k, Initial residual = 0.082862843, Final residual = 0.0038542146, No Iterations 1
ExecutionTime = 1.58 s  ClockTime = 2 s

volFieldValue fluid write:
    volAverage(fluid) of T = 300.03265

volFieldValue pcb write:
    volAverage(pcb) of T = 301.53657

volFieldValue component_0 write:
    volAverage(component_0) of T = 301.42842

volFieldValue component_1 write:
    volAverage(component_1) of T = 304.09659

volFieldValue component_2 write:
    volAverage(component_2) of T = 335.26736

volFieldValue component_3 write:
    volAverage(component_3) of T = 345.90528

volFieldValue component_4 write:
    volAverage(component_4) of T = 366.86204

Time = 16


Solving for fluid region fluid
DILUPBiCGStab:  Solving for Ux, Initial residual = 0.068798624, Final residual = 0.0013344377, No Iterations 2
DILUPBiCGStab:  Solving for Uy, Initial residual = 0.10346161, Final residual = 0.0019549626, No Iterations 2

Solving energy coupled regions
Using lduPrimitiveAssembly: lduAssembly456789
DILUPBiCGStab:  Solving for h, Initial residual = 0.0098682901, Final residual = 0.00026033362, No Iterations 1
limitTemperature=limitT, Type=Lower, LimitedCells=0, CellsPercent=0, Tmin=250, UnlimitedTmin=299.99531
limitTemperature=limitT, Type=Upper, LimitedCells=0, CellsPercent=0, Tmax=6000, UnlimitedTmax=304.42511
limitTemperature=limitT, Type=Lower, LimitedCells=0, CellsPercent=0, Tmin=250, UnlimitedTmin=300.00062
limitTemperature=limitT, Type=Upper, LimitedCells=0, CellsPercent=0, Tmax=6000, UnlimitedTmax=323.40075
limitTemperature=limitT, Type=Lower, LimitedCells=0, CellsPercent=0, Tmin=250, UnlimitedTmin=300.99045
limitTemperature=limitT, Type=Upper, LimitedCells=0, CellsPercent=0, Tmax=600, UnlimitedTmax=301.66778
limitTemperature=limitT, Type=Lower, LimitedCells=0, CellsPercent=0, Tmin=250, UnlimitedTmin=302.03997
limitTemperature=limitT, Type=Upper, LimitedCells=0, CellsPercent=0, Tmax=600, UnlimitedTmax=304.89035
limitTemperature=limitT, Type=Lower, LimitedCells=0, CellsPercent=0, Tmin=250, UnlimitedTmin=317.32682
limitTemperature=limitT, Type=Upper, LimitedCells=0, CellsPercent=0, Tmax=600, UnlimitedTmax=345.09941
limitTemperature=limitT, Type=Lower, LimitedCells=0, CellsPercent=0, Tmin=250, UnlimitedTmin=306.76803
limitTemperature=limitT, Type=Upper, LimitedCells=0, CellsPercent=0, Tmax=600, UnlimitedTmax=366.47841
limitTemperature=limitT, Type=Lower, LimitedCells=0, CellsPercent=0, Tmin=250, UnlimitedTmin=344.96759
limitTemperature=limitT, Type=Upper, LimitedCells=0, CellsPercent=0, Tmax=600, UnlimitedTmax=377.4448
DICPBiCGStab:  Solving for p_rgh, Initial residual = 0.53800099, Final residual = 0.051882407, No Iterations 86
time step continuity errors : sum local = 0.079209593, global = 0.028826049, cumulative = -0.080368548
Min/max rho:0.95569563 1.176661
DILUPBiCGStab:  Solving for epsilon, Initial residual = 0.024885132, Final residual = 0.00096087137, No Iterations 1
DILUPBiCGStab:  Solving for k, Initial residual = 0.076914212, Final residual = 0.0034870889, No Iterations 2
ExecutionTime = 1.69 s  ClockTime = 2 s

volFieldValue fluid write:
    volAverage(fluid) of T = 300.03579

volFieldValue pcb write:
    volAverage(pcb) of T = 301.69082

volFieldValue component_0 write:
    volAverage(component_0) of T = 301.51667

volFieldValue component_1 write:
    volAverage(component_1) of T = 304.35182

volFieldValue component_2 write:
    volAverage(component_2) of T = 336.89523

volFieldValue component_3 write:
    volAverage(component_3) of T = 347.87382

volFieldValue component_4 write:
    volAverage(component_4) of T = 369.77406

Time = 17


Solving for fluid region fluid
DILUPBiCGStab:  Solving for Ux, Initial residual = 0.18999692, Final residual = 0.0042155171, No Iterations 2
DILUPBiCGStab:  Solving for Uy, Initial residual = 0.11017228, Final residual = 0.0033949982, No Iterations 2

Solving energy coupled regions
Using lduPrimitiveAssembly: lduAssembly456789
DILUPBiCGStab:  Solving for h, Initial residual = 0.01058324, Final residual = 0.00042739675, No Iterations 1
limitTemperature=limitT, Type=Lower, LimitedCells=0, CellsPercent=0, Tmin=250, UnlimitedTmin=299.99548
limitTemperature=limitT, Type=Upper, LimitedCells=0, CellsPercent=0, Tmax=6000, UnlimitedTmax=303.31216
limitTemperature=limitT, Type=Lower, LimitedCells=0, CellsPercent=0, Tmin=250, UnlimitedTmin=300.00077
limitTemperature=limitT, Type=Upper, LimitedCells=0, CellsPercent=0, Tmax=6000, UnlimitedTmax=325.60837
limitTemperature=limitT, Type=Lower, LimitedCells=0, CellsPercent=0, Tmin=250, UnlimitedTmin=301.03748
limitTemperature=limitT, Type=Upper, LimitedCells=0, CellsPercent=0, Tmax=600, UnlimitedTmax=301.76943
limitTemperature=limitT, Type=Lower, LimitedCells=0, CellsPercent=0, Tmin=250, UnlimitedTmin=302.14765
limitTemperature=limitT, Type=Upper, LimitedCells=0, CellsPercent=0, Tmax=600, UnlimitedTmax=305.19312
limitTemperature=limitT, Type=Lower, LimitedCells=0, CellsPercent=0, Tmin=250, UnlimitedTmin=318.17344
limitTemperature=limitT, Type=Upper, LimitedCells=0, CellsPercent=0, Tmax=600, UnlimitedTmax=347.534
limitTemperature=limitT, Type=Lower, LimitedCells=0, CellsPercent=0, Tmin=250, UnlimitedTmin=309.29814
limitTemperature=limitT, Type=Upper, LimitedCells=0, CellsPercent=0, Tmax=600, UnlimitedTmax=369.93005
limitTemperature=limitT, Type=Lower, LimitedCells=0, CellsPercent=0, Tmin=250, UnlimitedTmin=346.67962
limitTemperature=limitT, Type=Upper, LimitedCells=0, CellsPercent=0, Tmax=600, UnlimitedTmax=381.08948
DICPBiCGStab:  Solving for p_rgh, Initial residual = 0.15026491, Final residual = 0.0091405939, No Iterations 97
time step continuity errors : sum local = 0.046378815, global = -0.02275395, cumulative = -0.1031225
Min/max rho:0.94703414 1.1770997
DILUPBiCGStab:  Solving for epsilon, Initial residual = 0.023026305, Final residual = 0.00079379572, No Iterations 1
DILUPBiCGStab:  Solving for k, Initial residual = 0.075630834, Final residual = 0.0035853498, No Iterations 2
ExecutionTime = 1.81 s  ClockTime = 2 s

volFieldValue fluid write:
    volAverage(fluid) of T = 300.03914

volFieldValue pcb write:
    volAverage(pcb) of T = 301.84613

volFieldValue component_0 write:
    volAverage(component_0) of T = 301.60274

volFieldValue component_1 write:
    volAverage(component_1) of T = 304.60272

volFieldValue component_2 write:
    volAverage(component_2) of T = 338.57062

volFieldValue component_3 write:
    volAverage(component_3) of T = 349.7377

volFieldValue component_4 write:
    volAverage(component_4) of T = 372.49738

Time = 18


Solving for fluid region fluid
DILUPBiCGStab:  Solving for Ux, Initial residual = 0.33524625, Final residual = 0.00729542, No Iterations 2
DILUPBiCGStab:  Solving for Uy, Initial residual = 0.13403273, Final residual = 0.0030544795, No Iterations 2

Solving energy coupled regions
Using lduPrimitiveAssembly: lduAssembly456789
DILUPBiCGStab:  Solving for h, Initial residual = 0.010479672, Final residual = 0.00037987459, No Iterations 1
limitTemperature=limitT, Type=Lower, LimitedCells=0, CellsPercent=0, Tmin=250, UnlimitedTmin=299.99562
limitTemperature=limitT, Type=Upper, LimitedCells=0, CellsPercent=0, Tmax=6000, UnlimitedTmax=302.64279
limitTemperature=limitT, Type=Lower, LimitedCells=0, CellsPercent=0, Tmin=250, UnlimitedTmin=300.00088
limitTemperature=limitT, Type=Upper, LimitedCells=0, CellsPercent=0, Tmax=6000, UnlimitedTmax=327.82418
limitTemperature=limitT, Type=Lower, LimitedCells=0, CellsPercent=0, Tmin=250, UnlimitedTmin=301.08929
limitTemperature=limitT, Type=Upper, LimitedCells=0, CellsPercent=0, Tmax=600, UnlimitedTmax=301.8688
limitTemperature=limitT, Type=Lower, LimitedCells=0, CellsPercent=0, Tmin=250, UnlimitedTmin=302.24352
limitTemperature=limitT, Type=Upper, LimitedCells=0, CellsPercent=0, Tmax=600, UnlimitedTmax=305.49069
limitTemperature=limitT, Type=Lower, LimitedCells=0, CellsPercent=0, Tmin=250, UnlimitedTmin=318.88128
limitTemperature=limitT, Type=Upper, LimitedCells=0, CellsPercent=0, Tmax=600, UnlimitedTmax=349.87136
limitTemperature=limitT, Type=Lower, LimitedCells=0, CellsPercent=0, Tmin=250, UnlimitedTmin=311.29991
limitTemperature=limitT, Type=Upper, LimitedCells=0, CellsPercent=0, Tmax=600, UnlimitedTmax=373.23612
limitTemperature=limitT, Type=Lower, LimitedCells=0, CellsPercent=0, Tmin=250, UnlimitedTmin=349.82711
limitTemperature=limitT, Type=Upper, LimitedCells=0, CellsPercent=0, Tmax=600, UnlimitedTmax=384.52046
DICPBiCGStab:  Solving for p_rgh, Initial residual = 0.066107168, Final residual = 0.0063299373, No Iterations 8
time step continuity errors : sum local = 0.075235332, global = -0.0076615135, cumulative = -0.11078401
Min/max rho:0.93899462 1.1780201
DILUPBiCGStab:  Solving for epsilon, Initial residual = 0.021089486, Final residual = 0.00075515277, No Iterations 1
DILUPBiCGStab:  Solving for k, Initial residual = 0.070723786, Final residual = 0.0034407221, No Iterations 1
ExecutionTime = 1.88 s  ClockTime = 2 s

volFieldValue fluid write:
    volAverage(fluid) of T = 300.04229

volFieldValue pcb write:
    volAverage(pcb) of T = 302.00858

volFieldValue component_0 write:
    volAverage(component_0) of T = 301.68927

volFieldValue component_1 write:
    volAverage(component_1) of T = 304.85274

volFieldValue component_2 write:
    volAverage(component_2) of T = 340.23283

volFieldValue component_3 write:
    volAverage(component_3) of T = 351.6079

volFieldValue component_4 write:
    volAverage(component_4) of T = 375.15645

Time = 19


Solving for fluid region fluid
DILUPBiCGStab:  Solving for Ux, Initial residual = 0.35439929, Final residual = 0.0072392014, No Iterations 2
DILUPBiCGStab:  Solving for Uy, Initial residual = 0.13498777, Final residual = 0.002353927, No Iterations 2

Solving energy coupled regions
Using lduPrimitiveAssembly: lduAssembly456789
DILUPBiCGStab:  Solving for h, Initial residual = 0.0098006099, Final residual = 0.00027754871, No Iterations 1
limitTemperature=limitT, Type=Lower, LimitedCells=0, CellsPercent=0, Tmin=250, UnlimitedTmin=299.99569
limitTemperature=limitT, Type=Upper, LimitedCells=0, CellsPercent=0, Tmax=6000, UnlimitedTmax=303.3779
limitTemperature=limitT, Type=Lower, LimitedCells=0, CellsPercent=0, Tmin=250, UnlimitedTmin=299.98023
limitTemperature=limitT, Type=Upper, LimitedCells=0, CellsPercent=0, Tmax=6000, UnlimitedTmax=330.06356
limitTemperature=limitT, Type=Lower, LimitedCells=0, CellsPercent=0, Tmin=250, UnlimitedTmin=301.13954
limitTemperature=limitT, Type=Upper, LimitedCells=0, CellsPercent=0, Tmax=600, UnlimitedTmax=301.96868
limitTemperature=limitT, Type=Lower, LimitedCells=0, CellsPercent=0, Tmin=250, UnlimitedTmin=302.33426
limitTemperature=limitT, Type=Upper, LimitedCells=0, CellsPercent=0, Tmax=600, UnlimitedTmax=305.78893
limitTemperature=limitT, Type=Lower, LimitedCells=0, CellsPercent=0, Tmin=250, UnlimitedTmin=319.51561
limitTemperature=limitT, Type=Upper, LimitedCells=0, CellsPercent=0, Tmax=600, UnlimitedTmax=352.16177
limitTemperature=limitT, Type=Lower, LimitedCells=0, CellsPercent=0, Tmin=250, UnlimitedTmin=312.08026
limitTemperature=limitT, Type=Upper, LimitedCells=0, CellsPercent=0, Tmax=600, UnlimitedTmax=376.45606
limitTemperature=limitT, Type=Lower, LimitedCells=0, CellsPercent=0, Tmin=250, UnlimitedTmin=353.13362
limitTemperature=limitT, Type=Upper, LimitedCells=0, CellsPercent=0, Tmax=600, UnlimitedTmax=387.81504
DICPBiCGStab:  Solving for p_rgh, Initial residual = 0.086484929, Final residual = 0.0086124952, No Iterations 8
time step continuity errors : sum local = 0.09024998, global = 0.059906871, cumulative = -0.050877141
Min/max rho:0.93125237 1.178484
DILUPBiCGStab:  Solving for epsilon, Initial residual = 0.022320123, Final residual = 0.00095444089, No Iterations 1
DILUPBiCGStab:  Solving for k, Initial residual = 0.082556827, Final residual = 0.0040485747, No Iterations 1
ExecutionTime = 1.91 s  ClockTime = 2 s

volFieldValue fluid write:
    volAverage(fluid) of T = 300.04569

volFieldValue pcb write:
    volAverage(pcb) of T = 302.17654

volFieldValue component_0 write:
    volAverage(component_0) of T = 301.77624

volFieldValue component_1 write:
    volAverage(component_1) of T = 305.10048

volFieldValue component_2 write:
    volAverage(component_2) of T = 341.90548

volFieldValue component_3 write:
    volAverage(component_3) of T = 353.49415

volFieldValue component_4 write:
    volAverage(component_4) of T = 377.65293

Time = 20


Solving for fluid region fluid
DILUPBiCGStab:  Solving for Ux, Initial residual = 0.27483851, Final residual = 0.0053101398, No Iterations 2
DILUPBiCGStab:  Solving for Uy, Initial residual = 0.11614878, Final residual = 0.0031135111, No Iterations 2

Solving energy coupled regions
Using lduPrimitiveAssembly: lduAssembly456789
DILUPBiCGStab:  Solving for h, Initial residual = 0.01004269, Final residual = 0.00033047524, No Iterations 1
limitTemperature=limitT, Type=Lower, LimitedCells=0, CellsPercent=0, Tmin=250, UnlimitedTmin=299.99564
limitTemperature=limitT, Type=Upper, LimitedCells=0, CellsPercent=0, Tmax=6000, UnlimitedTmax=304.4491
limitTemperature=limitT, Type=Lower, LimitedCells=0, CellsPercent=0, Tmin=250, UnlimitedTmin=299.9719
limitTemperature=limitT, Type=Upper, LimitedCells=0, CellsPercent=0, Tmax=6000, UnlimitedTmax=332.28715
limitTemperature=limitT, Type=Lower, LimitedCells=0, CellsPercent=0, Tmin=250, UnlimitedTmin=301.17933
limitTemperature=limitT, Type=Upper, LimitedCells=0, CellsPercent=0, Tmax=600, UnlimitedTmax=302.06864
limitTemperature=limitT, Type=Lower, LimitedCells=0, CellsPercent=0, Tmin=250, UnlimitedTmin=302.43908
limitTemperature=limitT, Type=Upper, LimitedCells=0, CellsPercent=0, Tmax=600, UnlimitedTmax=306.08543
limitTemperature=limitT, Type=Lower, LimitedCells=0, CellsPercent=0, Tmin=250, UnlimitedTmin=320.18451
limitTemperature=limitT, Type=Upper, LimitedCells=0, CellsPercent=0, Tmax=600, UnlimitedTmax=354.41776
limitTemperature=limitT, Type=Lower, LimitedCells=0, CellsPercent=0, Tmin=250, UnlimitedTmin=311.79311
limitTemperature=limitT, Type=Upper, LimitedCells=0, CellsPercent=0, Tmax=600, UnlimitedTmax=379.57361
limitTemperature=limitT, Type=Lower, LimitedCells=0, CellsPercent=0, Tmin=250, UnlimitedTmin=355.74719
limitTemperature=limitT, Type=Upper, LimitedCells=0, CellsPercent=0, Tmax=600, UnlimitedTmax=391.07792
DICPBiCGStab:  Solving for p_rgh, Initial residual = 0.12310781, Final residual = 0.012296406, No Iterations 25
time step continuity errors : sum local = 0.093322223, global = 0.089738798, cumulative = 0.038861658
Min/max rho:0.92377375 1.1787161
DILUPBiCGStab:  Solving for epsilon, Initial residual = 0.021789589, Final residual = 0.0008965402, No Iterations 1
DILUPBiCGStab:  Solving for k, Initial residual = 0.078550771, Final residual = 0.0010263107, No Iterations 2
ExecutionTime = 1.99 s  ClockTime = 2 s

volFieldValue fluid write:
    volAverage(fluid) of T = 300.04855

volFieldValue pcb write:
    volAverage(pcb) of T = 302.3462

volFieldValue component_0 write:
    volAverage(component_0) of T = 301.86194

volFieldValue component_1 write:
    volAverage(component_1) of T = 305.34101

volFieldValue component_2 write:
    volAverage(component_2) of T = 343.51783

volFieldValue component_3 write:
    volAverage(component_3) of T = 355.09708

volFieldValue component_4 write:
    volAverage(component_4) of T = 380.00799

Time = 21


Solving for fluid region fluid
DILUPBiCGStab:  Solving for Ux, Initial residual = 0.20800831, Final residual = 0.0049253582, No Iterations 2
DILUPBiCGStab:  Solving for Uy, Initial residual = 0.10934152, Final residual = 0.0026827232, No Iterations 2

Solving energy coupled regions
Using lduPrimitiveAssembly: lduAssembly456789
DILUPBiCGStab:  Solving for h, Initial residual = 0.0098922179, Final residual = 0.00037828582, No Iterations 1
limitTemperature=limitT, Type=Lower, LimitedCells=0, CellsPercent=0, Tmin=250, UnlimitedTmin=299.99542
limitTemperature=limitT, Type=Upper, LimitedCells=0, CellsPercent=0, Tmax=6000, UnlimitedTmax=303.94382
limitTemperature=limitT, Type=Lower, LimitedCells=0, CellsPercent=0, Tmin=250, UnlimitedTmin=299.97392
limitTemperature=limitT, Type=Upper, LimitedCells=0, CellsPercent=0, Tmax=6000, UnlimitedTmax=334.495
limitTemperature=limitT, Type=Lower, LimitedCells=0, CellsPercent=0, Tmin=250, UnlimitedTmin=301.2083
limitTemperature=limitT, Type=Upper, LimitedCells=0, CellsPercent=0, Tmax=600, UnlimitedTmax=302.16785
limitTemperature=limitT, Type=Lower, LimitedCells=0, CellsPercent=0, Tmin=250, UnlimitedTmin=302.5388
limitTemperature=limitT, Type=Upper, LimitedCells=0, CellsPercent=0, Tmax=600, UnlimitedTmax=306.38014
limitTemperature=limitT, Type=Lower, LimitedCells=0, CellsPercent=0, Tmin=250, UnlimitedTmin=321.17538
limitTemperature=limitT, Type=Upper, LimitedCells=0, CellsPercent=0, Tmax=600, UnlimitedTmax=356.61991
limitTemperature=limitT, Type=Lower, LimitedCells=0, CellsPercent=0, Tmin=250, UnlimitedTmin=309.76662
limitTemperature=limitT, Type=Upper, LimitedCells=0, CellsPercent=0, Tmax=600, UnlimitedTmax=382.58986
limitTemperature=limitT, Type=Lower, LimitedCells=0, CellsPercent=0, Tmin=250, UnlimitedTmin=355.76555
limitTemperature=limitT, Type=Upper, LimitedCells=0, CellsPercent=0, Tmax=600, UnlimitedTmax=394.203
DICPBiCGStab:  Solving for p_rgh, Initial residual = 0.12674419, Final residual = 0.0095409915, No Iterations 102
time step continuity errors : sum local = 0.064341155, global = -0.0056683941, cumulative = 0.033193264
Min/max rho:0.91654715 1.1788124
DILUPBiCGStab:  Solving for epsilon, Initial residual = 0.015456131, Final residual = 0.00061174235, No Iterations 1
DILUPBiCGStab:  Solving for k, Initial residual = 0.070599858, Final residual = 0.003363969, No Iterations 1
bounding k, min: -0.017332734 max: 1.2694383 average: 0.056732527
ExecutionTime = 2.11 s  ClockTime = 2 s

volFieldValue fluid write:
    volAverage(fluid) of T = 300.05227

volFieldValue pcb write:
    volAverage(pcb) of T = 302.51806

volFieldValue component_0 write:
    volAverage(component_0) of T = 301.9456

volFieldValue component_1 write:
    volAverage(component_1) of T = 305.57418

volFieldValue component_2 write:
    volAverage(component_2) of T = 345.07359

volFieldValue component_3 write:
    volAverage(component_3) of T = 356.49103

volFieldValue component_4 write:
    volAverage(component_4) of T = 382.31057

Time = 22


Solving for fluid region fluid
DILUPBiCGStab:  Solving for Ux, Initial residual = 0.079421118, Final residual = 0.0016984826, No Iterations 2
DILUPBiCGStab:  Solving for Uy, Initial residual = 0.12045965, Final residual = 0.001677074, No Iterations 2

Solving energy coupled regions
Using lduPrimitiveAssembly: lduAssembly456789
DILUPBiCGStab:  Solving for h, Initial residual = 0.0093827118, Final residual = 0.0003595504, No Iterations 1
limitTemperature=limitT, Type=Lower, LimitedCells=0, CellsPercent=0, Tmin=250, UnlimitedTmin=299.99512
limitTemperature=limitT, Type=Upper, LimitedCells=0, CellsPercent=0, Tmax=6000, UnlimitedTmax=303.32013
limitTemperature=limitT, Type=Lower, LimitedCells=0, CellsPercent=0, Tmin=250, UnlimitedTmin=299.97882
limitTemperature=limitT, Type=Upper, LimitedCells=0, CellsPercent=0, Tmax=6000, UnlimitedTmax=336.79149
limitTemperature=limitT, Type=Lower, LimitedCells=0, CellsPercent=0, Tmin=250, UnlimitedTmin=301.2318
limitTemperature=limitT, Type=Upper, LimitedCells=0, CellsPercent=0, Tmax=600, UnlimitedTmax=302.26621
limitTemperature=limitT, Type=Lower, LimitedCells=0, CellsPercent=0, Tmin=250, UnlimitedTmin=302.60722
limitTemperature=limitT, Type=Upper, LimitedCells=0, CellsPercent=0, Tmax=600, UnlimitedTmax=306.67288
limitTemperature=limitT, Type=Lower, LimitedCells=0, CellsPercent=0, Tmin=250, UnlimitedTmin=322.33866
limitTemperature=limitT, Type=Upper, LimitedCells=0, CellsPercent=0, Tmax=600, UnlimitedTmax=358.76163
limitTemperature=limitT, Type=Lower, LimitedCells=0, CellsPercent=0, Tmin=250, UnlimitedTmin=307.93718
limitTemperature=limitT, Type=Upper, LimitedCells=0, CellsPercent=0, Tmax=600, UnlimitedTmax=385.49763
limitTemperature=limitT, Type=Lower, LimitedCells=0, CellsPercent=0, Tmin=250, UnlimitedTmin=356.52904
limitTemperature=limitT, Type=Upper, LimitedCells=0, CellsPercent=0, Tmax=600, UnlimitedTmax=397.18094
DICPBiCGStab:  Solving for p_rgh, Initial residual = 0.45422563, Final residual = 0.044668738, No Iterations 69
time step continuity errors : sum local = 0.065897228, global = 0.021689385, cumulative = 0.054882649
Min/max rho:0.90934244 1.1777812
DILUPBiCGStab:  Solving for epsilon, Initial residual = 0.013976788, Final residual = 0.00055919789, No Iterations 1
DILUPBiCGStab:  Solving for k, Initial residual = 0.057223401, Final residual = 0.0027178829, No Iterations 1
ExecutionTime = 2.21 s  ClockTime = 2 s

volFieldValue fluid write:
    volAverage(fluid) of T = 300.05554

volFieldValue pcb write:
    volAverage(pcb) of T = 302.70042

volFieldValue component_0 write:
    volAverage(component_0) of T = 302.02757

volFieldValue component_1 write:
    volAverage(component_1) of T = 305.79869

volFieldValue component_2 write:
    volAverage(component_2) of T = 346.52252

volFieldValue component_3 write:
    volAverage(component_3) of T = 357.64309

volFieldValue component_4 write:
    volAverage(component_4) of T = 384.30554

Time = 23


Solving for fluid region fluid
DILUPBiCGStab:  Solving for Ux, Initial residual = 0.12079934, Final residual = 0.0023783126, No Iterations 2
DILUPBiCGStab:  Solving for Uy, Initial residual = 0.11466277, Final residual = 0.0046693874, No Iterations 2

Solving energy coupled regions
Using lduPrimitiveAssembly: lduAssembly456789
DILUPBiCGStab:  Solving for h, Initial residual = 0.0086807979, Final residual = 0.00026490967, No Iterations 1
limitTemperature=limitT, Type=Lower, LimitedCells=0, CellsPercent=0, Tmin=250, UnlimitedTmin=299.99483
limitTemperature=limitT, Type=Upper, LimitedCells=0, CellsPercent=0, Tmax=6000, UnlimitedTmax=303.33204
limitTemperature=limitT, Type=Lower, LimitedCells=0, CellsPercent=0, Tmin=250, UnlimitedTmin=299.9832
limitTemperature=limitT, Type=Upper, LimitedCells=0, CellsPercent=0, Tmax=6000, UnlimitedTmax=339.07894
limitTemperature=limitT, Type=Lower, LimitedCells=0, CellsPercent=0, Tmin=250, UnlimitedTmin=301.25392
limitTemperature=limitT, Type=Upper, LimitedCells=0, CellsPercent=0, Tmax=600, UnlimitedTmax=302.36344
limitTemperature=limitT, Type=Lower, LimitedCells=0, CellsPercent=0, Tmin=250, UnlimitedTmin=302.65651
limitTemperature=limitT, Type=Upper, LimitedCells=0, CellsPercent=0, Tmax=600, UnlimitedTmax=306.96192
limitTemperature=limitT, Type=Lower, LimitedCells=0, CellsPercent=0, Tmin=250, UnlimitedTmin=323.09374
limitTemperature=limitT, Type=Upper, LimitedCells=0, CellsPercent=0, Tmax=600, UnlimitedTmax=360.83485
limitTemperature=limitT, Type=Lower, LimitedCells=0, CellsPercent=0, Tmin=250, UnlimitedTmin=307.86846
limitTemperature=limitT, Type=Upper, LimitedCells=0, CellsPercent=0, Tmax=600, UnlimitedTmax=388.27625
limitTemperature=limitT, Type=Lower, LimitedCells=0, CellsPercent=0, Tmin=250, UnlimitedTmin=358.49331
limitTemperature=limitT, Type=Upper, LimitedCells=0, CellsPercent=0, Tmax=600, UnlimitedTmax=399.94736
DICPBiCGStab:  Solving for p_rgh, Initial residual = 0.16900663, Final residual = 0.016780451, No Iterations 13
time step continuity errors : sum local = 0.079231571, global = 0.056173766, cumulative = 0.11105642
Min/max rho:0.90276812 1.1768672
DILUPBiCGStab:  Solving for epsilon, Initial residual = 0.015961836, Final residual = 0.00066025173, No Iterations 1
DILUPBiCGStab:  Solving for k, Initial residual = 0.067865109, Final residual = 0.0032686968, No Iterations 1
ExecutionTime = 2.29 s  ClockTime = 2 s

volFieldValue fluid write:
    volAverage(fluid) of T = 300.0628

volFieldValue pcb write:
    volAverage(pcb) of T = 302.89407

volFieldValue component_0 write:
    volAverage(component_0) of T = 302.11002

volFieldValue component_1 write:
    volAverage(component_1) of T = 306.02196

volFieldValue component_2 write:
    volAverage(component_2) of T = 348.02178

volFieldValue component_3 write:
    volAverage(component_3) of T = 358.93977

volFieldValue component_4 write:
    volAverage(component_4) of T = 386.30471

Time = 24


Solving for fluid region fluid
DILUPBiCGStab:  Solving for Ux, Initial residual = 0.099102417, Final residual = 0.0018567756, No Iterations 2
DILUPBiCGStab:  Solving for Uy, Initial residual = 0.095824148, Final residual = 0.0023509965, No Iterations 2

Solving energy coupled regions
Using lduPrimitiveAssembly: lduAssembly456789
DILUPBiCGStab:  Solving for h, Initial residual = 0.0088849691, Final residual = 0.00040486318, No Iterations 1
limitTemperature=limitT, Type=Lower, LimitedCells=0, CellsPercent=0, Tmin=250, UnlimitedTmin=299.99454
limitTemperature=limitT, Type=Upper, LimitedCells=0, CellsPercent=0, Tmax=6000, UnlimitedTmax=304.92358
limitTemperature=limitT, Type=Lower, LimitedCells=0, CellsPercent=0, Tmin=250, UnlimitedTmin=299.98654
limitTemperature=limitT, Type=Upper, LimitedCells=0, CellsPercent=0, Tmax=6000, UnlimitedTmax=341.32868
limitTemperature=limitT, Type=Lower, LimitedCells=0, CellsPercent=0, Tmin=250, UnlimitedTmin=301.27701
limitTemperature=limitT, Type=Upper, LimitedCells=0, CellsPercent=0, Tmax=600, UnlimitedTmax=302.46155
limitTemperature=limitT, Type=Lower, LimitedCells=0, CellsPercent=0, Tmin=250, UnlimitedTmin=302.66723
limitTemperature=limitT, Type=Upper, LimitedCells=0, CellsPercent=0, Tmax=600, UnlimitedTmax=307.25071
limitTemperature=limitT, Type=Lower, LimitedCells=0, CellsPercent=0, Tmin=250, UnlimitedTmin=323.52913
limitTemperature=limitT, Type=Upper, LimitedCells=0, CellsPercent=0, Tmax=600, UnlimitedTmax=362.87341
limitTemperature=limitT, Type=Lower, LimitedCells=0, CellsPercent=0, Tmin=250, UnlimitedTmin=309.35961
limitTemperature=limitT, Type=Upper, LimitedCells=0, CellsPercent=0, Tmax=600, UnlimitedTmax=390.99074
limitTemperature=limitT, Type=Lower, LimitedCells=0, CellsPercent=0, Tmin=250, UnlimitedTmin=360.93963
limitTemperature=limitT, Type=Upper, LimitedCells=0, CellsPercent=0, Tmax=600, UnlimitedTmax=402.57889
DICPBiCGStab:  Solving for p_rgh, Initial residual = 0.21980454, Final residual = 0.02192808, No Iterations 48
time step continuity errors : sum local = 0.089860731, global = 0.081925121, cumulative = 0.19298154
Min/max rho:0.89642575 1.1766622
DILUPBiCGStab:  Solving for epsilon, Initial residual = 0.021439591, Final residual = 0.00062913071, No Iterations 1
DILUPBiCGStab:  Solving for k, Initial residual = 0.072695132, Final residual = 0.0029742767, No Iterations 1
ExecutionTime = 2.38 s  ClockTime = 2 s

volFieldValue fluid write:
    volAverage(fluid) of T = 300.06887

volFieldValue pcb write:
    volAverage(pcb) of T = 303.09868

volFieldValue component_0 write:
    volAverage(component_0) of T = 302.19027

volFieldValue component_1 write:
    volAverage(component_1) of T = 306.23654

volFieldValue component_2 write:
    volAverage(component_2) of T = 349.33998

volFieldValue component_3 write:
    volAverage(component_3) of T = 359.91566

volFieldValue component_4 write:
    volAverage(component_4) of T = 387.89676

Time = 25


Solving for fluid region fluid
DILUPBiCGStab:  Solving for Ux, Initial residual = 0.11518722, Final residual = 0.0024843758, No Iterations 2
DILUPBiCGStab:  Solving for Uy, Initial residual = 0.099948178, Final residual = 0.0034188822, No Iterations 2

Solving energy coupled regions
Using lduPrimitiveAssembly: lduAssembly456789
DILUPBiCGStab:  Solving for h, Initial residual = 0.0084468081, Final residual = 0.00036025306, No Iterations 1
limitTemperature=limitT, Type=Lower, LimitedCells=0, CellsPercent=0, Tmin=250, UnlimitedTmin=299.9943
limitTemperature=limitT, Type=Upper, LimitedCells=0, CellsPercent=0, Tmax=6000, UnlimitedTmax=304.32335
limitTemperature=limitT, Type=Lower, LimitedCells=0, CellsPercent=0, Tmin=250, UnlimitedTmin=299.98978
limitTemperature=limitT, Type=Upper, LimitedCells=0, CellsPercent=0, Tmax=6000, UnlimitedTmax=343.56617
limitTemperature=limitT, Type=Lower, LimitedCells=0, CellsPercent=0, Tmin=250, UnlimitedTmin=301.30212
[...]
    volAverage(component_3) of T = 397.94471

volFieldValue component_4 write:
    volAverage(component_4) of T = 352.59951

Time = 353


Solving for fluid region fluid
DILUPBiCGStab:  Solving for Ux, Initial residual = 0.18960624, Final residual = 0.004804146, No Iterations 1
DILUPBiCGStab:  Solving for Uy, Initial residual = 0.31750714, Final residual = 0.0093315032, No Iterations 1

Solving energy coupled regions
Using lduPrimitiveAssembly: lduAssembly456789
DILUPBiCGStab:  Solving for h, Initial residual = 0.99999917, Final residual = 0.00092684334, No Iterations 9
limitTemperature=limitT, Type=Lower, LimitedCells=2350, CellsPercent=27.68, Tmin=250, UnlimitedTmin=250
limitTemperature=limitT, Type=Upper, LimitedCells=2272, CellsPercent=26.76, Tmax=6000, UnlimitedTmax=6000
limitTemperature=limitT, Type=Lower, LimitedCells=385, CellsPercent=54.46, Tmin=250, UnlimitedTmin=250
limitTemperature=limitT, Type=Upper, LimitedCells=24, CellsPercent=3.39, Tmax=6000, UnlimitedTmax=6000
limitTemperature=limitT, Type=Lower, LimitedCells=471, CellsPercent=83.96, Tmin=250, UnlimitedTmin=250
limitTemperature=limitT, Type=Upper, LimitedCells=53, CellsPercent=9.45, Tmax=600, UnlimitedTmax=600
limitTemperature=limitT, Type=Lower, LimitedCells=128, CellsPercent=23.23, Tmin=250, UnlimitedTmin=250
limitTemperature=limitT, Type=Upper, LimitedCells=300, CellsPercent=54.45, Tmax=600, UnlimitedTmax=600
limitTemperature=limitT, Type=Lower, LimitedCells=51, CellsPercent=42.5, Tmin=250, UnlimitedTmin=250
limitTemperature=limitT, Type=Upper, LimitedCells=52, CellsPercent=43.33, Tmax=600, UnlimitedTmax=250
limitTemperature=limitT, Type=Lower, LimitedCells=133, CellsPercent=79.17, Tmin=250, UnlimitedTmin=250
limitTemperature=limitT, Type=Upper, LimitedCells=0, CellsPercent=0, Tmax=600, UnlimitedTmax=600
limitTemperature=limitT, Type=Lower, LimitedCells=0, CellsPercent=0, Tmin=250, UnlimitedTmin=289.77184
limitTemperature=limitT, Type=Upper, LimitedCells=0, CellsPercent=0, Tmax=600, UnlimitedTmax=385.61429
DICPBiCGStab:  Solving for p_rgh, Initial residual = 0.99830523, Final residual = 0.068901854, No Iterations 2
time step continuity errors : sum local = 2.2865847e+10, global = -5.9995761, cumulative = -7.5208993
Min/max rho:0.0036635208 11098083
DILUPBiCGStab:  Solving for epsilon, Initial residual = 0.12564397, Final residual = 0.0016466036, No Iterations 1
bounding epsilon, min: -1.6972869e+12 max: 2.4791574e+13 average: 1.1875331e+10
DILUPBiCGStab:  Solving for k, Initial residual = 0.38374624, Final residual = 0.0058361918, No Iterations 1
bounding k, min: -51778144 max: 3.8683771e+09 average: 9182015.6
ExecutionTime = 26.69 s  ClockTime = 27 s

volFieldValue fluid write:
    volAverage(fluid) of T = 1968.0643

volFieldValue pcb write:
    volAverage(pcb) of T = 625.16834

volFieldValue component_0 write:
    volAverage(component_0) of T = 284.30277

volFieldValue component_1 write:
    volAverage(component_1) of T = 464.16545

volFieldValue component_2 write:
    volAverage(component_2) of T = 409.68869

volFieldValue component_3 write:
    volAverage(component_3) of T = 263.87354

volFieldValue component_4 write:
    volAverage(component_4) of T = 346.76839

Time = 354


Solving for fluid region fluid
DILUPBiCGStab:  Solving for Ux, Initial residual = 0.20861754, Final residual = 0.0071652608, No Iterations 1
DILUPBiCGStab:  Solving for Uy, Initial residual = 0.41447478, Final residual = 0.014150684, No Iterations 1

Solving energy coupled regions
Using lduPrimitiveAssembly: lduAssembly456789
DILUPBiCGStab:  Solving for h, Initial residual = 0.99999994, Final residual = 0.03893804, No Iterations 5
limitTemperature=limitT, Type=Lower, LimitedCells=3736, CellsPercent=44, Tmin=250, UnlimitedTmin=250
limitTemperature=limitT, Type=Upper, LimitedCells=1845, CellsPercent=21.73, Tmax=6000, UnlimitedTmax=6000
limitTemperature=limitT, Type=Lower, LimitedCells=455, CellsPercent=64.36, Tmin=250, UnlimitedTmin=250
limitTemperature=limitT, Type=Upper, LimitedCells=17, CellsPercent=2.4, Tmax=6000, UnlimitedTmax=6000
limitTemperature=limitT, Type=Lower, LimitedCells=343, CellsPercent=61.14, Tmin=250, UnlimitedTmin=250
limitTemperature=limitT, Type=Upper, LimitedCells=218, CellsPercent=38.86, Tmax=600, UnlimitedTmax=600
limitTemperature=limitT, Type=Lower, LimitedCells=65, CellsPercent=11.8, Tmin=250, UnlimitedTmin=250
limitTemperature=limitT, Type=Upper, LimitedCells=369, CellsPercent=66.97, Tmax=600, UnlimitedTmax=600
limitTemperature=limitT, Type=Lower, LimitedCells=91, CellsPercent=75.83, Tmin=250, UnlimitedTmin=250
limitTemperature=limitT, Type=Upper, LimitedCells=18, CellsPercent=15, Tmax=600, UnlimitedTmax=600
limitTemperature=limitT, Type=Lower, LimitedCells=168, CellsPercent=100, Tmin=250, UnlimitedTmin=250
limitTemperature=limitT, Type=Upper, LimitedCells=0, CellsPercent=0, Tmax=600, UnlimitedTmax=368.05732
limitTemperature=limitT, Type=Lower, LimitedCells=36, CellsPercent=100, Tmin=250, UnlimitedTmin=292.69853
limitTemperature=limitT, Type=Upper, LimitedCells=0, CellsPercent=0, Tmax=600, UnlimitedTmax=378.30963
DICPBiCGStab:  Solving for p_rgh, Initial residual = 0.99748505, Final residual = 0.087591706, No Iterations 4
time step continuity errors : sum local = 5.9675699e+10, global = -6.49594, cumulative = -14.016839
Min/max rho:0.0018317604 3.2017041e+09
DILUPBiCGStab:  Solving for epsilon, Initial residual = 0.74775257, Final residual = 0.018829994, No Iterations 1
bounding epsilon, min: -4.7006474e+12 max: 6.8821846e+15 average: 2.3770015e+12
DILUPBiCGStab:  Solving for k, Initial residual = 0.0034483011, Final residual = 7.3832836e-05, No Iterations 2
bounding k, min: -23398841 max: 1.8070196e+14 average: 6.3825269e+10
ExecutionTime = 26.78 s  ClockTime = 27 s

volFieldValue fluid write:
    volAverage(fluid) of T = 1661.2108

volFieldValue pcb write:
    volAverage(pcb) of T = 519.38913

volFieldValue component_0 write:
    volAverage(component_0) of T = 387.27461

volFieldValue component_1 write:
    volAverage(component_1) of T = 507.36696

volFieldValue component_2 write:
    volAverage(component_2) of T = 314.96327

volFieldValue component_3 write:
    volAverage(component_3) of T = 250

volFieldValue component_4 write:
    volAverage(component_4) of T = 250

Time = 355


Solving for fluid region fluid
DILUPBiCGStab:  Solving for Ux, Initial residual = 0.052205013, Final residual = 0.0015040952, No Iterations 2
DILUPBiCGStab:  Solving for Uy, Initial residual = 0.1097256, Final residual = 0.004155702, No Iterations 2

Solving energy coupled regions
Using lduPrimitiveAssembly: lduAssembly456789
DILUPBiCGStab:  Solving for h, Initial residual = 1, Final residual = 0.00036869596, No Iterations 17
limitTemperature=limitT, Type=Lower, LimitedCells=3511, CellsPercent=41.35, Tmin=250, UnlimitedTmin=250
limitTemperature=limitT, Type=Upper, LimitedCells=2331, CellsPercent=27.46, Tmax=6000, UnlimitedTmax=6000
limitTemperature=limitT, Type=Lower, LimitedCells=643, CellsPercent=90.95, Tmin=250, UnlimitedTmin=250
limitTemperature=limitT, Type=Upper, LimitedCells=35, CellsPercent=4.95, Tmax=6000, UnlimitedTmax=6000
limitTemperature=limitT, Type=Lower, LimitedCells=561, CellsPercent=100, Tmin=250, UnlimitedTmin=250
limitTemperature=limitT, Type=Upper, LimitedCells=0, CellsPercent=0, Tmax=600, UnlimitedTmax=600
limitTemperature=limitT, Type=Lower, LimitedCells=549, CellsPercent=99.64, Tmin=250, UnlimitedTmin=250
limitTemperature=limitT, Type=Upper, LimitedCells=2, CellsPercent=0.36, Tmax=600, UnlimitedTmax=600
limitTemperature=limitT, Type=Lower, LimitedCells=120, CellsPercent=100, Tmin=250, UnlimitedTmin=250
limitTemperature=limitT, Type=Upper, LimitedCells=0, CellsPercent=0, Tmax=600, UnlimitedTmax=600
limitTemperature=limitT, Type=Lower, LimitedCells=128, CellsPercent=76.19, Tmin=250, UnlimitedTmin=250
limitTemperature=limitT, Type=Upper, LimitedCells=40, CellsPercent=23.81, Tmax=600, UnlimitedTmax=250
limitTemperature=limitT, Type=Lower, LimitedCells=36, CellsPercent=100, Tmin=250, UnlimitedTmin=250
limitTemperature=limitT, Type=Upper, LimitedCells=0, CellsPercent=0, Tmax=600, UnlimitedTmax=250
DICPBiCGStab:  Solving for p_rgh, Initial residual = 0.8151058, Final residual = 0.073362326, No Iterations 2
time step continuity errors : sum local = 4.0224037e+13, global = -6.7220578, cumulative = -20.738897
Min/max rho:0.0009158802 5.4370275e+13
DILUPBiCGStab:  Solving for epsilon, Initial residual = 0.54842827, Final residual = 0.025857187, No Iterations 1
bounding epsilon, min: -9.3726584e+13 max: 1.1879712e+17 average: 1.1356902e+14
DILUPBiCGStab:  Solving for k, Initial residual = 1.6986274e-11, Final residual = 1.6986274e-11, No Iterations 0
ExecutionTime = 26.86 s  ClockTime = 27 s

volFieldValue fluid write:
    volAverage(fluid) of T = 1879.0213

volFieldValue pcb write:
    volAverage(pcb) of T = 512.58577

volFieldValue component_0 write:
    volAverage(component_0) of T = 250

volFieldValue component_1 write:
    volAverage(component_1) of T = 251.27549

volFieldValue component_2 write:
    volAverage(component_2) of T = 250

volFieldValue component_3 write:
    volAverage(component_3) of T = 333.54683

volFieldValue component_4 write:
    volAverage(component_4) of T = 250

Time = 356


Solving for fluid region fluid
DILUPBiCGStab:  Solving for Ux, Initial residual = 0.0010028006, Final residual = 3.8018167e-05, No Iterations 1
DILUPBiCGStab:  Solving for Uy, Initial residual = 0.00027841855, Final residual = 5.2206599e-06, No Iterations 2

Solving energy coupled regions
Using lduPrimitiveAssembly: lduAssembly456789
DILUPBiCGStab:  Solving for h, Initial residual = 1, Final residual = 0.018908148, No Iterations 7
limitTemperature=limitT, Type=Lower, LimitedCells=4586, CellsPercent=54.02, Tmin=250, UnlimitedTmin=250
limitTemperature=limitT, Type=Upper, LimitedCells=1406, CellsPercent=16.56, Tmax=6000, UnlimitedTmax=6000
limitTemperature=limitT, Type=Lower, LimitedCells=647, CellsPercent=91.51, Tmin=250, UnlimitedTmin=250
limitTemperature=limitT, Type=Upper, LimitedCells=44, CellsPercent=6.22, Tmax=6000, UnlimitedTmax=6000
limitTemperature=limitT, Type=Lower, LimitedCells=498, CellsPercent=88.77, Tmin=250, UnlimitedTmin=250
limitTemperature=limitT, Type=Upper, LimitedCells=63, CellsPercent=11.23, Tmax=600, UnlimitedTmax=250
limitTemperature=limitT, Type=Lower, LimitedCells=463, CellsPercent=84.03, Tmin=250, UnlimitedTmin=250
limitTemperature=limitT, Type=Upper, LimitedCells=88, CellsPercent=15.97, Tmax=600, UnlimitedTmax=600
limitTemperature=limitT, Type=Lower, LimitedCells=120, CellsPercent=100, Tmin=250, UnlimitedTmin=250
limitTemperature=limitT, Type=Upper, LimitedCells=0, CellsPercent=0, Tmax=600, UnlimitedTmax=250
limitTemperature=limitT, Type=Lower, LimitedCells=144, CellsPercent=85.71, Tmin=250, UnlimitedTmin=250
limitTemperature=limitT, Type=Upper, LimitedCells=24, CellsPercent=14.29, Tmax=600, UnlimitedTmax=600
limitTemperature=limitT, Type=Lower, LimitedCells=5, CellsPercent=13.89, Tmin=250, UnlimitedTmin=250
limitTemperature=limitT, Type=Upper, LimitedCells=0, CellsPercent=0, Tmax=600, UnlimitedTmax=250
DICPBiCGStab:  Solving for p_rgh, Initial residual = 0.99732983, Final residual = 0.098843216, No Iterations 4
time step continuity errors : sum local = 5.6714449e+17, global = -157003.43, cumulative = -157024.17
Min/max rho:0.0004579401 5.0372662e+14
DILUPBiCGStab:  Solving for epsilon, Initial residual = 0.37168174, Final residual = 0.015730952, No Iterations 4
bounding epsilon, min: -2.8581784e+23 max: 4.6241019e+18 average: -2.3014398e+20
DILUPBiCGStab:  Solving for k, Initial residual = 4.7781073e-14, Final residual = 4.7781073e-14, No Iterations 0
ExecutionTime = 26.9 s  ClockTime = 27 s

volFieldValue fluid write:
    volAverage(fluid) of T = 1286.02

volFieldValue pcb write:
    volAverage(pcb) of T = 624.03639

volFieldValue component_0 write:
    volAverage(component_0) of T = 288.66812

volFieldValue component_1 write:
    volAverage(component_1) of T = 305.72288

volFieldValue component_2 write:
    volAverage(component_2) of T = 250

volFieldValue component_3 write:
    volAverage(component_3) of T = 299.92014

volFieldValue component_4 write:
    volAverage(component_4) of T = 266.92967

Time = 357


Solving for fluid region fluid
DILUPBiCGStab:  Solving for Ux, Initial residual = 0.0084110557, Final residual = 0.00014276551, No Iterations 3
DILUPBiCGStab:  Solving for Uy, Initial residual = 0.14351708, Final residual = 0.0043127608, No Iterations 2

Solving energy coupled regions
Using lduPrimitiveAssembly: lduAssembly456789
DILUPBiCGStab:  Solving for h, Initial residual = 1, Final residual = 0.02087006, No Iterations 18
limitTemperature=limitT, Type=Lower, LimitedCells=4864, CellsPercent=57.29, Tmin=250, UnlimitedTmin=250
limitTemperature=limitT, Type=Upper, LimitedCells=1719, CellsPercent=20.25, Tmax=6000, UnlimitedTmax=6000
limitTemperature=limitT, Type=Lower, LimitedCells=707, CellsPercent=100, Tmin=250, UnlimitedTmin=250
limitTemperature=limitT, Type=Upper, LimitedCells=0, CellsPercent=0, Tmax=6000, UnlimitedTmax=6000
limitTemperature=limitT, Type=Lower, LimitedCells=561, CellsPercent=100, Tmin=250, UnlimitedTmin=250
limitTemperature=limitT, Type=Upper, LimitedCells=0, CellsPercent=0, Tmax=600, UnlimitedTmax=600
limitTemperature=limitT, Type=Lower, LimitedCells=551, CellsPercent=100, Tmin=250, UnlimitedTmin=250
limitTemperature=limitT, Type=Upper, LimitedCells=0, CellsPercent=0, Tmax=600, UnlimitedTmax=600
limitTemperature=limitT, Type=Lower, LimitedCells=120, CellsPercent=100, Tmin=250, UnlimitedTmin=250
limitTemperature=limitT, Type=Upper, LimitedCells=0, CellsPercent=0, Tmax=600, UnlimitedTmax=250
limitTemperature=limitT, Type=Lower, LimitedCells=168, CellsPercent=100, Tmin=250, UnlimitedTmin=250
limitTemperature=limitT, Type=Upper, LimitedCells=0, CellsPercent=0, Tmax=600, UnlimitedTmax=600
limitTemperature=limitT, Type=Lower, LimitedCells=36, CellsPercent=100, Tmin=250, UnlimitedTmin=250
limitTemperature=limitT, Type=Upper, LimitedCells=0, CellsPercent=0, Tmax=600, UnlimitedTmax=354.093
DICPBiCGStab:  Solving for p_rgh, Initial residual = 0.87076932, Final residual = 0.076975607, No Iterations 2
time step continuity errors : sum local = 1.8163853e+24, global = 2.9777718e+08, cumulative = 2.9762015e+08
Min/max rho:0.00022897005 7.5186331e+14
DILUPBiCGStab:  Solving for epsilon, Initial residual = 0.99869014, Final residual = 0.010204774, No Iterations 7
bounding epsilon, min: -4.6923929e+33 max: 6.7268146e+29 average: -8.933341e+29
DILUPBiCGStab:  Solving for k, Initial residual = 0.99997516, Final residual = 5.6211073e-10, No Iterations 1
bounding k, min: -2.7028044e+15 max: 1.1777627e+27 average: 1.4179334e+23
ExecutionTime = 26.98 s  ClockTime = 27 s

volFieldValue fluid write:
    volAverage(fluid) of T = 1402.5929

volFieldValue pcb write:
    volAverage(pcb) of T = 250

volFieldValue component_0 write:
    volAverage(component_0) of T = 250

volFieldValue component_1 write:
    volAverage(component_1) of T = 250

volFieldValue component_2 write:
    volAverage(component_2) of T = 250

volFieldValue component_3 write:
    volAverage(component_3) of T = 250

volFieldValue component_4 write:
    volAverage(component_4) of T = 250

Time = 358


Solving for fluid region fluid
DILUPBiCGStab:  Solving for Ux, Initial residual = 0.0039735458, Final residual = 6.5719577e-05, No Iterations 7
DILUPBiCGStab:  Solving for Uy, Initial residual = 0.056538757, Final residual = 0.0025137023, No Iterations 5

Solving energy coupled regions
Using lduPrimitiveAssembly: lduAssembly456789
DILUPBiCGStab:  Solving for h, Initial residual = 1, Final residual = 0.038962521, No Iterations 17
limitTemperature=limitT, Type=Lower, LimitedCells=4822, CellsPercent=56.8, Tmin=250, UnlimitedTmin=250
limitTemperature=limitT, Type=Upper, LimitedCells=2276, CellsPercent=26.81, Tmax=6000, UnlimitedTmax=6000
limitTemperature=limitT, Type=Lower, LimitedCells=682, CellsPercent=96.46, Tmin=250, UnlimitedTmin=250
limitTemperature=limitT, Type=Upper, LimitedCells=25, CellsPercent=3.54, Tmax=6000, UnlimitedTmax=250
limitTemperature=limitT, Type=Lower, LimitedCells=492, CellsPercent=87.7, Tmin=250, UnlimitedTmin=250
limitTemperature=limitT, Type=Upper, LimitedCells=69, CellsPercent=12.3, Tmax=600, UnlimitedTmax=250
limitTemperature=limitT, Type=Lower, LimitedCells=551, CellsPercent=100, Tmin=250, UnlimitedTmin=250
limitTemperature=limitT, Type=Upper, LimitedCells=0, CellsPercent=0, Tmax=600, UnlimitedTmax=250
limitTemperature=limitT, Type=Lower, LimitedCells=120, CellsPercent=100, Tmin=250, UnlimitedTmin=250
limitTemperature=limitT, Type=Upper, LimitedCells=0, CellsPercent=0, Tmax=600, UnlimitedTmax=250
limitTemperature=limitT, Type=Lower, LimitedCells=168, CellsPercent=100, Tmin=250, UnlimitedTmin=250
limitTemperature=limitT, Type=Upper, LimitedCells=0, CellsPercent=0, Tmax=600, UnlimitedTmax=250
limitTemperature=limitT, Type=Lower, LimitedCells=36, CellsPercent=100, Tmin=250, UnlimitedTmin=250
limitTemperature=limitT, Type=Upper, LimitedCells=0, CellsPercent=0, Tmax=600, UnlimitedTmax=250
DICPBiCGStab:  Solving for p_rgh, Initial residual = 0.99999998, Final residual = 0.077127651, No Iterations 2
time step continuity errors : sum local = 7.9150429e+33, global = -6.7778329e+17, cumulative = -6.7778329e+17
Min/max rho:0.0010257763 8.7593166e+14
DILUPBiCGStab:  Solving for epsilon, Initial residual = 0.99999999, Final residual = 0.037669465, No Iterations 3
bounding epsilon, min: -1.2190904e+37 max: 2.87036e+45 average: 4.6758705e+41
DILUPBiCGStab:  Solving for k, Initial residual = 4.4631614e-07, Final residual = 4.4631614e-07, No Iterations 0
ExecutionTime = 27.08 s  ClockTime = 27 s

volFieldValue fluid write:
    volAverage(fluid) of T = 1776.2468

volFieldValue pcb write:
    volAverage(pcb) of T = 463.2415

volFieldValue component_0 write:
    volAverage(component_0) of T = 293.27153

volFieldValue component_1 write:
    volAverage(component_1) of T = 250

volFieldValue component_2 write:
    volAverage(component_2) of T = 250

volFieldValue component_3 write:
    volAverage(component_3) of T = 250

volFieldValue component_4 write:
    volAverage(component_4) of T = 250

Time = 359


Solving for fluid region fluid
DILUPBiCGStab:  Solving for Ux, Initial residual = 0.67490576, Final residual = 0.015576978, No Iterations 13
DILUPBiCGStab:  Solving for Uy, Initial residual = 0.34755796, Final residual = 0.0040491695, No Iterations 14

Solving energy coupled regions
Using lduPrimitiveAssembly: lduAssembly456789
[stack trace]
=============
#1  Foam::sigFpe::sigHandler(int) in /usr/lib/openfoam/openfoam2506/platforms/linux64GccDPInt32Opt/lib/libOpenFOAM.so
#2  ? in /lib/x86_64-linux-gnu/libc.so.6
#3  Foam::PBiCGStab::scalarSolve(Foam::Field<double>&, Foam::Field<double> const&, unsigned char) const in /usr/lib/openfoam/openfoam2506/platforms/linux64GccDPInt32Opt/lib/libOpenFOAM.so
#4  Foam::PBiCGStab::solve(Foam::Field<double>&, Foam::Field<double> const&, unsigned char) const in /usr/lib/openfoam/openfoam2506/platforms/linux64GccDPInt32Opt/lib/libOpenFOAM.so
#5  Foam::fvMatrix<double>::solveSegregated(Foam::dictionary const&) in /usr/lib/openfoam/openfoam2506/platforms/linux64GccDPInt32Opt/lib/libfiniteVolume.so
#6  ? in /usr/lib/openfoam/openfoam2506/platforms/linux64GccDPInt32Opt/lib/libfiniteVolume.so
#7  Foam::fvMesh::solve(Foam::fvMatrix<double>&, Foam::dictionary const&) const in /usr/lib/openfoam/openfoam2506/platforms/linux64GccDPInt32Opt/lib/libfiniteVolume.so
#8  ? in /usr/lib/openfoam/openfoam2506/platforms/linux64GccDPInt32Opt/bin/chtMultiRegionSimpleFoam
#9  ? in /usr/lib/openfoam/openfoam2506/platforms/linux64GccDPInt32Opt/bin/chtMultiRegionSimpleFoam
#10  ? in /lib/x86_64-linux-gnu/libc.so.6
#11  __libc_start_main in /lib/x86_64-linux-gnu/libc.so.6
#12  ? in /usr/lib/openfoam/openfoam2506/platforms/linux64GccDPInt32Opt/bin/chtMultiRegionSimpleFoam
=============
Floating point exception (core dumped)
