/*---------------------------------------------------------------------------*\
| =========                 |                                                 |
| \\      /  F ield         | OpenFOAM: The Open Source CFD Toolbox           |
|  \\    /   O peration     | Version:  2506                                  |
|   \\  /    A nd           | Website:  www.openfoam.com                      |
|    \\/     M anipulation  |                                                 |
\*---------------------------------------------------------------------------*/
Build  : _615aae61-20250627 OPENFOAM=2506 version=2506
Arch   : "LSB;label=32;scalar=64"
Exec   : chtMultiRegionSimpleFoam
Date   : Oct 04 2025
Time   : 23:26:23
Host   : instance-20250906-0051
PID    : 101679
I/O    : uncollated
Case   : /home/ubuntu/ThermalUNet/data_generation/simulation_results/openfoam/case_48
nProcs : 1
trapFpe: Floating point exception trapping enabled (FOAM_SIGFPE).
fileModificationChecking : Monitoring run-time modified files using timeStampMaster (fileModificationSkew 5, maxFileModificationPolls 20)
allowSystemOperations : Allowing user-supplied system call operations

// * * * * * * * * * * * * * * * * * * * * * * * * * * * * * * * * * * * * * //
Create time

Create fluid mesh for region fluid for time = 0

Create solid mesh for region pcb for time = 0

Create solid mesh for region component_0 for time = 0

Create solid mesh for region component_1 for time = 0

Create solid mesh for region component_2 for time = 0

Create solid mesh for region component_3 for time = 0

Create solid mesh for region component_4 for time = 0

*** Reading fluid mesh thermophysical properties for region fluid

    Adding to thermoFluid

Selecting thermodynamics package 
{
    type            heRhoThermo;
    mixture         pureMixture;
    transport       const;
    thermo          hConst;
    equationOfState perfectGas;
    specie          specie;
    energy          sensibleEnthalpy;
}

    Adding to rhoFluid

    Adding to UFluid

    Adding to phiFluid

    Adding to hRefFluid

    Adding to ghFluid

    Adding to ghfFluid

    Adding to turbulence

Selecting turbulence model type RAS
Selecting RAS turbulence model realizableKE
RAS
{
    RASModel        realizableKE;
    turbulence      on;
    printCoeffs     on;
    A0              4;
    C2              1.9;
    sigmak          1;
    sigmaEps        1.2;
}

Radiation model not active: radiationProperties not found
Selecting radiationModel none
    Adding MRF

No MRF models present

    Adding fvOptions

Creating finite volume options from "system/fvOptions"

Selecting finite volume options type limitTemperature
    Source: limitT
    State: active
    - selecting all cells
    - selected 9367 cell(s) with volume 17.826387
*** Reading solid mesh thermophysical properties for region pcb

    Adding to thermos

Selecting thermodynamics package 
{
    type            heSolidThermo;
    mixture         pureMixture;
    transport       constIso;
    thermo          hConst;
    equationOfState rhoConst;
    specie          specie;
    energy          sensibleEnthalpy;
}

    Adding to radiations

Radiation model not active: radiationProperties not found
Selecting radiationModel none
    Adding fvOptions

Creating finite volume options from "system/fvOptions"

Selecting finite volume options type limitTemperature
    Source: limitT
    State: active
    - selecting all cells
    - selected 628 cell(s) with volume 1.093362
*** Reading solid mesh thermophysical properties for region component_0

    Adding to thermos

Selecting thermodynamics package 
{
    type            heSolidThermo;
    mixture         pureMixture;
    transport       constIso;
    thermo          hConst;
    equationOfState rhoConst;
    specie          specie;
    energy          sensibleEnthalpy;
}

    Adding to radiations

Radiation model not active: radiationProperties not found
Selecting radiationModel none
    Adding fvOptions

Creating finite volume options from "system/fvOptions"

Selecting finite volume options type scalarSemiImplicitSource
    Source: v_CPU_AbsoluteEnergySource
    State: active
    - selecting cells using cellZones (component_0)
    - selected 55 cell(s) with volume 0.094527933
Selecting finite volume options type limitTemperature
    Source: limitT
    State: active
    - selecting all cells
    - selected 55 cell(s) with volume 0.094527933
*** Reading solid mesh thermophysical properties for region component_1

    Adding to thermos

Selecting thermodynamics package 
{
    type            heSolidThermo;
    mixture         pureMixture;
    transport       constIso;
    thermo          hConst;
    equationOfState rhoConst;
    specie          specie;
    energy          sensibleEnthalpy;
}

    Adding to radiations

Radiation model not active: radiationProperties not found
Selecting radiationModel none
    Adding fvOptions

Creating finite volume options from "system/fvOptions"

Selecting finite volume options type scalarSemiImplicitSource
    Source: v_CPU_AbsoluteEnergySource
    State: active
    - selecting cells using cellZones (component_1)
    - selected 66 cell(s) with volume 0.12291136
Selecting finite volume options type limitTemperature
    Source: limitT
    State: active
    - selecting all cells
    - selected 66 cell(s) with volume 0.12291136
*** Reading solid mesh thermophysical properties for region component_2

    Adding to thermos

Selecting thermodynamics package 
{
    type            heSolidThermo;
    mixture         pureMixture;
    transport       constIso;
    thermo          hConst;
    equationOfState rhoConst;
    specie          specie;
    energy          sensibleEnthalpy;
}

    Adding to radiations

Radiation model not active: radiationProperties not found
Selecting radiationModel none
    Adding fvOptions

Creating finite volume options from "system/fvOptions"

Selecting finite volume options type scalarSemiImplicitSource
    Source: v_CPU_AbsoluteEnergySource
    State: active
    - selecting cells using cellZones (component_2)
    - selected 177 cell(s) with volume 0.330413
Selecting finite volume options type limitTemperature
    Source: limitT
    State: active
    - selecting all cells
    - selected 177 cell(s) with volume 0.330413
*** Reading solid mesh thermophysical properties for region component_3

    Adding to thermos

Selecting thermodynamics package 
{
    type            heSolidThermo;
    mixture         pureMixture;
    transport       constIso;
    thermo          hConst;
    equationOfState rhoConst;
    specie          specie;
    energy          sensibleEnthalpy;
}

    Adding to radiations

Radiation model not active: radiationProperties not found
Selecting radiationModel none
    Adding fvOptions

Creating finite volume options from "system/fvOptions"

Selecting finite volume options type scalarSemiImplicitSource
    Source: v_CPU_AbsoluteEnergySource
    State: active
    - selecting cells using cellZones (component_3)
    - selected 136 cell(s) with volume 0.25772902
Selecting finite volume options type limitTemperature
    Source: limitT
    State: active
    - selecting all cells
    - selected 136 cell(s) with volume 0.25772902
*** Reading solid mesh thermophysical properties for region component_4

    Adding to thermos

Selecting thermodynamics package 
{
    type            heSolidThermo;
    mixture         pureMixture;
    transport       constIso;
    thermo          hConst;
    equationOfState rhoConst;
    specie          specie;
    energy          sensibleEnthalpy;
}

    Adding to radiations

Radiation model not active: radiationProperties not found
Selecting radiationModel none
    Adding fvOptions

Creating finite volume options from "system/fvOptions"

Selecting finite volume options type scalarSemiImplicitSource
    Source: v_CPU_AbsoluteEnergySource
    State: active
    - selecting cells using cellZones (component_4)
    - selected 153 cell(s) with volume 0.27467017
Selecting finite volume options type limitTemperature
    Source: limitT
    State: active
    - selecting all cells
    - selected 153 cell(s) with volume 0.27467017
Create fvMatrixAssembly.
--> FOAM Warning : 

    failed lookup of region0 (objectRegistry case_48)
    available objects of type objectRegistry:
7(component_3 component_0 component_1 fluid pcb component_4 component_2)


    From const Type& Foam::objectRegistry::lookupObject(const Foam::word&, bool) const [with Type = Foam::objectRegistry]
    in file db/objectRegistry/objectRegistryTemplates.C at line 628.
--> loading function object 'limitT'

Time = 1


Solving for fluid region fluid
DILUPBiCGStab:  Solving for Ux, Initial residual = 1, Final residual = 0.036716073, No Iterations 2
DILUPBiCGStab:  Solving for Uy, Initial residual = 1, Final residual = 0.034118519, No Iterations 2

Solving energy coupled regions
Creating lduPrimitiveAssembly: lduAssembly456789
DILUPBiCGStab:  Solving for h, Initial residual = 0.0083325454, Final residual = 0.0001370423, No Iterations 1
limitTemperature=limitT, Type=Lower, LimitedCells=0, CellsPercent=0, Tmin=250, UnlimitedTmin=300
limitTemperature=limitT, Type=Upper, LimitedCells=0, CellsPercent=0, Tmax=6000, UnlimitedTmax=300
limitTemperature=limitT, Type=Lower, LimitedCells=0, CellsPercent=0, Tmin=250, UnlimitedTmin=300
limitTemperature=limitT, Type=Upper, LimitedCells=0, CellsPercent=0, Tmax=6000, UnlimitedTmax=300
limitTemperature=limitT, Type=Lower, LimitedCells=0, CellsPercent=0, Tmin=250, UnlimitedTmin=300
limitTemperature=limitT, Type=Upper, LimitedCells=0, CellsPercent=0, Tmax=6000, UnlimitedTmax=300
limitTemperature=limitT, Type=Lower, LimitedCells=0, CellsPercent=0, Tmin=250, UnlimitedTmin=300
limitTemperature=limitT, Type=Upper, LimitedCells=0, CellsPercent=0, Tmax=6000, UnlimitedTmax=300
limitTemperature=limitT, Type=Lower, LimitedCells=0, CellsPercent=0, Tmin=250, UnlimitedTmin=300
limitTemperature=limitT, Type=Upper, LimitedCells=0, CellsPercent=0, Tmax=6000, UnlimitedTmax=300
limitTemperature=limitT, Type=Lower, LimitedCells=0, CellsPercent=0, Tmin=250, UnlimitedTmin=300
limitTemperature=limitT, Type=Upper, LimitedCells=0, CellsPercent=0, Tmax=6000, UnlimitedTmax=300
limitTemperature=limitT, Type=Lower, LimitedCells=0, CellsPercent=0, Tmin=250, UnlimitedTmin=300
limitTemperature=limitT, Type=Upper, LimitedCells=0, CellsPercent=0, Tmax=6000, UnlimitedTmax=300
DICPBiCGStab:  Solving for p_rgh, Initial residual = 1, Final residual = 0.093593842, No Iterations 115
time step continuity errors : sum local = 0.0052559548, global = 0.00087486415, cumulative = 0.00087486415
Min/max rho:1.176629 1.1766559
DILUPBiCGStab:  Solving for epsilon, Initial residual = 0.92533102, Final residual = 0.0060380676, No Iterations 1
DILUPBiCGStab:  Solving for k, Initial residual = 1, Final residual = 0.0029832504, No Iterations 1
ExecutionTime = 0.32 s  ClockTime = 0 s

volFieldValue fluid write:
    volAverage(fluid) of T = 300.00006

volFieldValue pcb write:
    volAverage(pcb) of T = 300.00309

volFieldValue component_0 write:
    volAverage(component_0) of T = 301.06684

volFieldValue component_1 write:
    volAverage(component_1) of T = 300.75577

volFieldValue component_2 write:
    volAverage(component_2) of T = 300.25197

volFieldValue component_3 write:
    volAverage(component_3) of T = 300.25987

volFieldValue component_4 write:
    volAverage(component_4) of T = 300.30856

Time = 2


Solving for fluid region fluid
DILUPBiCGStab:  Solving for Ux, Initial residual = 0.64641837, Final residual = 0.0097108875, No Iterations 2
DILUPBiCGStab:  Solving for Uy, Initial residual = 0.57095603, Final residual = 0.011495324, No Iterations 2

Solving energy coupled regions
Using lduPrimitiveAssembly: lduAssembly456789
DILUPBiCGStab:  Solving for h, Initial residual = 0.0084361182, Final residual = 0.0001156783, No Iterations 1
limitTemperature=limitT, Type=Lower, LimitedCells=0, CellsPercent=0, Tmin=250, UnlimitedTmin=299.99978
limitTemperature=limitT, Type=Upper, LimitedCells=0, CellsPercent=0, Tmax=6000, UnlimitedTmax=300.01347
limitTemperature=limitT, Type=Lower, LimitedCells=0, CellsPercent=0, Tmin=250, UnlimitedTmin=299.9999
limitTemperature=limitT, Type=Upper, LimitedCells=0, CellsPercent=0, Tmax=6000, UnlimitedTmax=300.06128
limitTemperature=limitT, Type=Lower, LimitedCells=0, CellsPercent=0, Tmin=250, UnlimitedTmin=300.77598
limitTemperature=limitT, Type=Upper, LimitedCells=0, CellsPercent=0, Tmax=6000, UnlimitedTmax=301.25227
limitTemperature=limitT, Type=Lower, LimitedCells=0, CellsPercent=0, Tmin=250, UnlimitedTmin=300.50868
limitTemperature=limitT, Type=Upper, LimitedCells=0, CellsPercent=0, Tmax=6000, UnlimitedTmax=300.99349
limitTemperature=limitT, Type=Lower, LimitedCells=0, CellsPercent=0, Tmin=250, UnlimitedTmin=300.18332
limitTemperature=limitT, Type=Upper, LimitedCells=0, CellsPercent=0, Tmax=6000, UnlimitedTmax=300.31453
limitTemperature=limitT, Type=Lower, LimitedCells=0, CellsPercent=0, Tmin=250, UnlimitedTmin=300.15138
limitTemperature=limitT, Type=Upper, LimitedCells=0, CellsPercent=0, Tmax=6000, UnlimitedTmax=300.31274
limitTemperature=limitT, Type=Lower, LimitedCells=0, CellsPercent=0, Tmin=250, UnlimitedTmin=300.22792
limitTemperature=limitT, Type=Upper, LimitedCells=0, CellsPercent=0, Tmax=6000, UnlimitedTmax=300.39563
DICPBiCGStab:  Solving for p_rgh, Initial residual = 0.10478587, Final residual = 0.0040531758, No Iterations 127
time step continuity errors : sum local = 0.0019296696, global = -0.00065160717, cumulative = 0.00022325699
Min/max rho:1.1742565 1.1766773
DILUPBiCGStab:  Solving for epsilon, Initial residual = 0.91881458, Final residual = 0.010175889, No Iterations 1
DILUPBiCGStab:  Solving for k, Initial residual = 0.93250315, Final residual = 0.0043564463, No Iterations 1
ExecutionTime = 0.5 s  ClockTime = 0 s

volFieldValue fluid write:
    volAverage(fluid) of T = 300.00012

volFieldValue pcb write:
    volAverage(pcb) of T = 300.00898

volFieldValue component_0 write:
    volAverage(component_0) of T = 302.11778

volFieldValue component_1 write:
    volAverage(component_1) of T = 301.50138

volFieldValue component_2 write:
    volAverage(component_2) of T = 300.50248

volFieldValue component_3 write:
    volAverage(component_3) of T = 300.51706

volFieldValue component_4 write:
    volAverage(component_4) of T = 300.61479

Time = 3


Solving for fluid region fluid
DILUPBiCGStab:  Solving for Ux, Initial residual = 0.41468747, Final residual = 0.0074532411, No Iterations 2
DILUPBiCGStab:  Solving for Uy, Initial residual = 0.36285934, Final residual = 0.0058990513, No Iterations 2

Solving energy coupled regions
Using lduPrimitiveAssembly: lduAssembly456789
DILUPBiCGStab:  Solving for h, Initial residual = 0.0082569624, Final residual = 0.00010779839, No Iterations 1
limitTemperature=limitT, Type=Lower, LimitedCells=0, CellsPercent=0, Tmin=250, UnlimitedTmin=299.99983
limitTemperature=limitT, Type=Upper, LimitedCells=0, CellsPercent=0, Tmax=6000, UnlimitedTmax=300.02732
limitTemperature=limitT, Type=Lower, LimitedCells=0, CellsPercent=0, Tmin=250, UnlimitedTmin=299.99985
limitTemperature=limitT, Type=Upper, LimitedCells=0, CellsPercent=0, Tmax=6000, UnlimitedTmax=300.17374
limitTemperature=limitT, Type=Lower, LimitedCells=0, CellsPercent=0, Tmin=250, UnlimitedTmin=301.66203
limitTemperature=limitT, Type=Upper, LimitedCells=0, CellsPercent=0, Tmax=6000, UnlimitedTmax=302.38915
limitTemperature=limitT, Type=Lower, LimitedCells=0, CellsPercent=0, Tmin=250, UnlimitedTmin=301.0839
limitTemperature=limitT, Type=Upper, LimitedCells=0, CellsPercent=0, Tmax=6000, UnlimitedTmax=301.87001
limitTemperature=limitT, Type=Lower, LimitedCells=0, CellsPercent=0, Tmin=250, UnlimitedTmin=300.38744
limitTemperature=limitT, Type=Upper, LimitedCells=0, CellsPercent=0, Tmax=6000, UnlimitedTmax=300.59384
limitTemperature=limitT, Type=Lower, LimitedCells=0, CellsPercent=0, Tmin=250, UnlimitedTmin=300.32732
limitTemperature=limitT, Type=Upper, LimitedCells=0, CellsPercent=0, Tmax=6000, UnlimitedTmax=300.60745
limitTemperature=limitT, Type=Lower, LimitedCells=0, CellsPercent=0, Tmin=250, UnlimitedTmin=300.48239
limitTemperature=limitT, Type=Upper, LimitedCells=0, CellsPercent=0, Tmax=6000, UnlimitedTmax=300.74284
DICPBiCGStab:  Solving for p_rgh, Initial residual = 0.094057699, Final residual = 0.0093611455, No Iterations 8
time step continuity errors : sum local = 0.0073244638, global = 0.00019976149, cumulative = 0.00042301848
Min/max rho:1.1709177 1.1767001
DILUPBiCGStab:  Solving for epsilon, Initial residual = 0.85339681, Final residual = 0.017758464, No Iterations 1
DILUPBiCGStab:  Solving for k, Initial residual = 0.8063595, Final residual = 0.0061145352, No Iterations 1
ExecutionTime = 0.57 s  ClockTime = 1 s

volFieldValue fluid write:
    volAverage(fluid) of T = 300.00063

volFieldValue pcb write:
    volAverage(pcb) of T = 300.0173

volFieldValue component_0 write:
    volAverage(component_0) of T = 303.10142

volFieldValue component_1 write:
    volAverage(component_1) of T = 302.19264

volFieldValue component_2 write:
    volAverage(component_2) of T = 300.74519

volFieldValue component_3 write:
    volAverage(component_3) of T = 300.76239

volFieldValue component_4 write:
    volAverage(component_4) of T = 300.90328

Time = 4


Solving for fluid region fluid
DILUPBiCGStab:  Solving for Ux, Initial residual = 0.24545136, Final residual = 0.0045082483, No Iterations 2
DILUPBiCGStab:  Solving for Uy, Initial residual = 0.20871764, Final residual = 0.0034647771, No Iterations 2

Solving energy coupled regions
Using lduPrimitiveAssembly: lduAssembly456789
DILUPBiCGStab:  Solving for h, Initial residual = 0.0082309556, Final residual = 0.0001082352, No Iterations 1
limitTemperature=limitT, Type=Lower, LimitedCells=0, CellsPercent=0, Tmin=250, UnlimitedTmin=299.99989
limitTemperature=limitT, Type=Upper, LimitedCells=0, CellsPercent=0, Tmax=6000, UnlimitedTmax=300.129
limitTemperature=limitT, Type=Lower, LimitedCells=0, CellsPercent=0, Tmin=250, UnlimitedTmin=299.99989
limitTemperature=limitT, Type=Upper, LimitedCells=0, CellsPercent=0, Tmax=6000, UnlimitedTmax=300.32484
limitTemperature=limitT, Type=Lower, LimitedCells=0, CellsPercent=0, Tmin=250, UnlimitedTmin=302.57513
limitTemperature=limitT, Type=Upper, LimitedCells=0, CellsPercent=0, Tmax=6000, UnlimitedTmax=303.47281
limitTemperature=limitT, Type=Lower, LimitedCells=0, CellsPercent=0, Tmin=250, UnlimitedTmin=301.70151
limitTemperature=limitT, Type=Upper, LimitedCells=0, CellsPercent=0, Tmax=6000, UnlimitedTmax=302.59664
limitTemperature=limitT, Type=Lower, LimitedCells=0, CellsPercent=0, Tmin=250, UnlimitedTmin=300.60291
limitTemperature=limitT, Type=Upper, LimitedCells=0, CellsPercent=0, Tmax=6000, UnlimitedTmax=300.84966
limitTemperature=limitT, Type=Lower, LimitedCells=0, CellsPercent=0, Tmin=250, UnlimitedTmin=300.51302
limitTemperature=limitT, Type=Upper, LimitedCells=0, CellsPercent=0, Tmax=6000, UnlimitedTmax=300.89195
limitTemperature=limitT, Type=Lower, LimitedCells=0, CellsPercent=0, Tmin=250, UnlimitedTmin=300.74996
limitTemperature=limitT, Type=Upper, LimitedCells=0, CellsPercent=0, Tmax=6000, UnlimitedTmax=301.02706
DICPBiCGStab:  Solving for p_rgh, Initial residual = 0.14249621, Final residual = 0.014163487, No Iterations 13
time step continuity errors : sum local = 0.011696742, global = 0.00030347186, cumulative = 0.00072649034
Min/max rho:1.1673117 1.1767107
DILUPBiCGStab:  Solving for epsilon, Initial residual = 0.65961106, Final residual = 0.027978419, No Iterations 1
bounding epsilon, min: -0.1190005 max: 10 average: 0.22167962
DILUPBiCGStab:  Solving for k, Initial residual = 0.64271676, Final residual = 0.0086477116, No Iterations 1
ExecutionTime = 0.61 s  ClockTime = 1 s

volFieldValue fluid write:
    volAverage(fluid) of T = 300.00135

volFieldValue pcb write:
    volAverage(pcb) of T = 300.02808

volFieldValue component_0 write:
    volAverage(component_0) of T = 304.05334

volFieldValue component_1 write:
    volAverage(component_1) of T = 302.86071

volFieldValue component_2 write:
    volAverage(component_2) of T = 300.98391

volFieldValue component_3 write:
    volAverage(component_3) of T = 301.00145

volFieldValue component_4 write:
    volAverage(component_4) of T = 301.18307

Time = 5


Solving for fluid region fluid
DILUPBiCGStab:  Solving for Ux, Initial residual = 0.15530384, Final residual = 0.0031234056, No Iterations 2
DILUPBiCGStab:  Solving for Uy, Initial residual = 0.12312456, Final residual = 0.0023358756, No Iterations 2

Solving energy coupled regions
Using lduPrimitiveAssembly: lduAssembly456789
DILUPBiCGStab:  Solving for h, Initial residual = 0.008260735, Final residual = 0.00010950939, No Iterations 1
limitTemperature=limitT, Type=Lower, LimitedCells=0, CellsPercent=0, Tmin=250, UnlimitedTmin=299.99982
limitTemperature=limitT, Type=Upper, LimitedCells=0, CellsPercent=0, Tmax=6000, UnlimitedTmax=300.37073
limitTemperature=limitT, Type=Lower, LimitedCells=0, CellsPercent=0, Tmin=250, UnlimitedTmin=299.99981
limitTemperature=limitT, Type=Upper, LimitedCells=0, CellsPercent=0, Tmax=6000, UnlimitedTmax=300.51065
limitTemperature=limitT, Type=Lower, LimitedCells=0, CellsPercent=0, Tmin=250, UnlimitedTmin=303.49196
limitTemperature=limitT, Type=Upper, LimitedCells=0, CellsPercent=0, Tmax=6000, UnlimitedTmax=304.51642
limitTemperature=limitT, Type=Lower, LimitedCells=0, CellsPercent=0, Tmin=250, UnlimitedTmin=302.34318
limitTemperature=limitT, Type=Upper, LimitedCells=0, CellsPercent=0, Tmax=6000, UnlimitedTmax=303.3158
limitTemperature=limitT, Type=Lower, LimitedCells=0, CellsPercent=0, Tmin=250, UnlimitedTmin=300.82386
limitTemperature=limitT, Type=Upper, LimitedCells=0, CellsPercent=0, Tmax=6000, UnlimitedTmax=301.11779
limitTemperature=limitT, Type=Lower, LimitedCells=0, CellsPercent=0, Tmin=250, UnlimitedTmin=300.70306
limitTemperature=limitT, Type=Upper, LimitedCells=0, CellsPercent=0, Tmax=6000, UnlimitedTmax=301.1733
limitTemperature=limitT, Type=Lower, LimitedCells=0, CellsPercent=0, Tmin=250, UnlimitedTmin=301.02176
limitTemperature=limitT, Type=Upper, LimitedCells=0, CellsPercent=0, Tmax=6000, UnlimitedTmax=301.33427
DICPBiCGStab:  Solving for p_rgh, Initial residual = 0.15890182, Final residual = 0.014205023, No Iterations 28
time step continuity errors : sum local = 0.01197046, global = 0.0066808367, cumulative = 0.007407327
Min/max rho:1.1637374 1.1767158
DILUPBiCGStab:  Solving for epsilon, Initial residual = 0.41507532, Final residual = 0.0014754218, No Iterations 1
bounding epsilon, min: -0.14265067 max: 10 average: 0.1180258
DILUPBiCGStab:  Solving for k, Initial residual = 0.47607285, Final residual = 0.011490802, No Iterations 1
ExecutionTime = 0.69 s  ClockTime = 1 s

volFieldValue fluid write:
    volAverage(fluid) of T = 300.0019

volFieldValue pcb write:
    volAverage(pcb) of T = 300.0406

volFieldValue component_0 write:
    volAverage(component_0) of T = 304.99184

volFieldValue component_1 write:
    volAverage(component_1) of T = 303.52014

volFieldValue component_2 write:
    volAverage(component_2) of T = 301.22046

volFieldValue component_3 write:
    volAverage(component_3) of T = 301.23721

volFieldValue component_4 write:
    volAverage(component_4) of T = 301.45943

Time = 6


Solving for fluid region fluid
DILUPBiCGStab:  Solving for Ux, Initial residual = 0.10881329, Final residual = 0.0022067054, No Iterations 2
DILUPBiCGStab:  Solving for Uy, Initial residual = 0.073515234, Final residual = 0.0014304751, No Iterations 2

Solving energy coupled regions
Using lduPrimitiveAssembly: lduAssembly456789
DILUPBiCGStab:  Solving for h, Initial residual = 0.0082466066, Final residual = 0.00010937559, No Iterations 1
limitTemperature=limitT, Type=Lower, LimitedCells=0, CellsPercent=0, Tmin=250, UnlimitedTmin=299.99974
limitTemperature=limitT, Type=Upper, LimitedCells=0, CellsPercent=0, Tmax=6000, UnlimitedTmax=300.39039
limitTemperature=limitT, Type=Lower, LimitedCells=0, CellsPercent=0, Tmin=250, UnlimitedTmin=299.99972
limitTemperature=limitT, Type=Upper, LimitedCells=0, CellsPercent=0, Tmax=6000, UnlimitedTmax=300.72807
limitTemperature=limitT, Type=Lower, LimitedCells=0, CellsPercent=0, Tmin=250, UnlimitedTmin=304.40703
limitTemperature=limitT, Type=Upper, LimitedCells=0, CellsPercent=0, Tmax=6000, UnlimitedTmax=305.53328
limitTemperature=limitT, Type=Lower, LimitedCells=0, CellsPercent=0, Tmin=250, UnlimitedTmin=302.99732
limitTemperature=limitT, Type=Upper, LimitedCells=0, CellsPercent=0, Tmax=6000, UnlimitedTmax=304.01197
limitTemperature=limitT, Type=Lower, LimitedCells=0, CellsPercent=0, Tmin=250, UnlimitedTmin=301.04727
limitTemperature=limitT, Type=Upper, LimitedCells=0, CellsPercent=0, Tmax=6000, UnlimitedTmax=301.38189
limitTemperature=limitT, Type=Lower, LimitedCells=0, CellsPercent=0, Tmin=250, UnlimitedTmin=300.89514
limitTemperature=limitT, Type=Upper, LimitedCells=0, CellsPercent=0, Tmax=6000, UnlimitedTmax=301.44982
limitTemperature=limitT, Type=Lower, LimitedCells=0, CellsPercent=0, Tmin=250, UnlimitedTmin=301.20849
limitTemperature=limitT, Type=Upper, LimitedCells=0, CellsPercent=0, Tmax=6000, UnlimitedTmax=301.64927
DICPBiCGStab:  Solving for p_rgh, Initial residual = 0.16946483, Final residual = 0.016741652, No Iterations 85
time step continuity errors : sum local = 0.012427697, global = 0.0094061338, cumulative = 0.016813461
Min/max rho:1.16022 1.176716
DILUPBiCGStab:  Solving for epsilon, Initial residual = 0.26421297, Final residual = 0.0020935354, No Iterations 1
bounding epsilon, min: -0.19403842 max: 10 average: 0.071887191
DILUPBiCGStab:  Solving for k, Initial residual = 0.29737916, Final residual = 0.0083532886, No Iterations 1
ExecutionTime = 0.81 s  ClockTime = 1 s

volFieldValue fluid write:
    volAverage(fluid) of T = 300.00251

volFieldValue pcb write:
    volAverage(pcb) of T = 300.05513

volFieldValue component_0 write:
    volAverage(component_0) of T = 305.92357

volFieldValue component_1 write:
    volAverage(component_1) of T = 304.17472

volFieldValue component_2 write:
    volAverage(component_2) of T = 301.45549

volFieldValue component_3 write:
    volAverage(component_3) of T = 301.47078

volFieldValue component_4 write:
    volAverage(component_4) of T = 301.7338

Time = 7


Solving for fluid region fluid
DILUPBiCGStab:  Solving for Ux, Initial residual = 0.072237101, Final residual = 0.0014523033, No Iterations 2
DILUPBiCGStab:  Solving for Uy, Initial residual = 0.074844261, Final residual = 0.0021348203, No Iterations 2

Solving energy coupled regions
Using lduPrimitiveAssembly: lduAssembly456789
DILUPBiCGStab:  Solving for h, Initial residual = 0.0084300947, Final residual = 0.00011660539, No Iterations 1
limitTemperature=limitT, Type=Lower, LimitedCells=0, CellsPercent=0, Tmin=250, UnlimitedTmin=299.99966
limitTemperature=limitT, Type=Upper, LimitedCells=0, CellsPercent=0, Tmax=6000, UnlimitedTmax=300.62927
limitTemperature=limitT, Type=Lower, LimitedCells=0, CellsPercent=0, Tmin=250, UnlimitedTmin=299.99964
limitTemperature=limitT, Type=Upper, LimitedCells=0, CellsPercent=0, Tmax=6000, UnlimitedTmax=300.97438
limitTemperature=limitT, Type=Lower, LimitedCells=0, CellsPercent=0, Tmin=250, UnlimitedTmin=305.29152
limitTemperature=limitT, Type=Upper, LimitedCells=0, CellsPercent=0, Tmax=6000, UnlimitedTmax=306.54629
limitTemperature=limitT, Type=Lower, LimitedCells=0, CellsPercent=0, Tmin=250, UnlimitedTmin=303.65689
limitTemperature=limitT, Type=Upper, LimitedCells=0, CellsPercent=0, Tmax=6000, UnlimitedTmax=304.68993
limitTemperature=limitT, Type=Lower, LimitedCells=0, CellsPercent=0, Tmin=250, UnlimitedTmin=301.27161
limitTemperature=limitT, Type=Upper, LimitedCells=0, CellsPercent=0, Tmax=6000, UnlimitedTmax=301.64266
limitTemperature=limitT, Type=Lower, LimitedCells=0, CellsPercent=0, Tmin=250, UnlimitedTmin=301.08868
limitTemperature=limitT, Type=Upper, LimitedCells=0, CellsPercent=0, Tmax=6000, UnlimitedTmax=301.72213
limitTemperature=limitT, Type=Lower, LimitedCells=0, CellsPercent=0, Tmin=250, UnlimitedTmin=301.40407
limitTemperature=limitT, Type=Upper, LimitedCells=0, CellsPercent=0, Tmax=6000, UnlimitedTmax=301.96072
DICPBiCGStab:  Solving for p_rgh, Initial residual = 0.26255705, Final residual = 0.017860145, No Iterations 91
time step continuity errors : sum local = 0.0073249168, global = 0.0053805032, cumulative = 0.022193964
Min/max rho:1.1567288 1.176697
DILUPBiCGStab:  Solving for epsilon, Initial residual = 0.12511795, Final residual = 0.0016109339, No Iterations 1
bounding epsilon, min: -0.14969759 max: 10 average: 0.048240426
DILUPBiCGStab:  Solving for k, Initial residual = 0.20052463, Final residual = 0.0061533957, No Iterations 1
ExecutionTime = 0.97 s  ClockTime = 1 s

volFieldValue fluid write:
    volAverage(fluid) of T = 300.00314

volFieldValue pcb write:
    volAverage(pcb) of T = 300.0711

volFieldValue component_0 write:
    volAverage(component_0) of T = 306.85085

volFieldValue component_1 write:
    volAverage(component_1) of T = 304.82821

volFieldValue component_2 write:
    volAverage(component_2) of T = 301.68954

volFieldValue component_3 write:
    volAverage(component_3) of T = 301.70285

volFieldValue component_4 write:
    volAverage(component_4) of T = 302.00654

Time = 8


Solving for fluid region fluid
DILUPBiCGStab:  Solving for Ux, Initial residual = 0.081527842, Final residual = 0.001686605, No Iterations 2
DILUPBiCGStab:  Solving for Uy, Initial residual = 0.11915031, Final residual = 0.0022476145, No Iterations 2

Solving energy coupled regions
Using lduPrimitiveAssembly: lduAssembly456789
DILUPBiCGStab:  Solving for h, Initial residual = 0.0083019837, Final residual = 0.00010938393, No Iterations 1
limitTemperature=limitT, Type=Lower, LimitedCells=0, CellsPercent=0, Tmin=250, UnlimitedTmin=299.99954
limitTemperature=limitT, Type=Upper, LimitedCells=0, CellsPercent=0, Tmax=6000, UnlimitedTmax=300.38626
limitTemperature=limitT, Type=Lower, LimitedCells=0, CellsPercent=0, Tmin=250, UnlimitedTmin=299.99955
limitTemperature=limitT, Type=Upper, LimitedCells=0, CellsPercent=0, Tmax=6000, UnlimitedTmax=301.24701
limitTemperature=limitT, Type=Lower, LimitedCells=0, CellsPercent=0, Tmin=250, UnlimitedTmin=306.12594
limitTemperature=limitT, Type=Upper, LimitedCells=0, CellsPercent=0, Tmax=6000, UnlimitedTmax=307.54307
limitTemperature=limitT, Type=Lower, LimitedCells=0, CellsPercent=0, Tmin=250, UnlimitedTmin=304.31787
limitTemperature=limitT, Type=Upper, LimitedCells=0, CellsPercent=0, Tmax=6000, UnlimitedTmax=305.34707
limitTemperature=limitT, Type=Lower, LimitedCells=0, CellsPercent=0, Tmin=250, UnlimitedTmin=301.49613
limitTemperature=limitT, Type=Upper, LimitedCells=0, CellsPercent=0, Tmax=6000, UnlimitedTmax=301.9005
limitTemperature=limitT, Type=Lower, LimitedCells=0, CellsPercent=0, Tmin=250, UnlimitedTmin=301.28351
limitTemperature=limitT, Type=Upper, LimitedCells=0, CellsPercent=0, Tmax=6000, UnlimitedTmax=301.99059
limitTemperature=limitT, Type=Lower, LimitedCells=0, CellsPercent=0, Tmin=250, UnlimitedTmin=301.62032
limitTemperature=limitT, Type=Upper, LimitedCells=0, CellsPercent=0, Tmax=6000, UnlimitedTmax=302.26909
DICPBiCGStab:  Solving for p_rgh, Initial residual = 0.2971546, Final residual = 0.029625023, No Iterations 15
time step continuity errors : sum local = 0.011210597, global = 0.010315257, cumulative = 0.032509221
Min/max rho:1.1532356 1.176667
DILUPBiCGStab:  Solving for epsilon, Initial residual = 0.12545412, Final residual = 0.0018938332, No Iterations 1
bounding epsilon, min: -0.073231813 max: 10 average: 0.037892108
DILUPBiCGStab:  Solving for k, Initial residual = 0.084597124, Final residual = 0.0028125529, No Iterations 1
ExecutionTime = 1 s  ClockTime = 1 s

volFieldValue fluid write:
    volAverage(fluid) of T = 300.00403

volFieldValue pcb write:
    volAverage(pcb) of T = 300.08895

volFieldValue component_0 write:
    volAverage(component_0) of T = 307.78187

volFieldValue component_1 write:
    volAverage(component_1) of T = 305.48611

volFieldValue component_2 write:
    volAverage(component_2) of T = 301.92317

volFieldValue component_3 write:
    volAverage(component_3) of T = 301.93451

volFieldValue component_4 write:
    volAverage(component_4) of T = 302.27869

Time = 9


Solving for fluid region fluid
DILUPBiCGStab:  Solving for Ux, Initial residual = 0.089233451, Final residual = 0.0016527915, No Iterations 2
DILUPBiCGStab:  Solving for Uy, Initial residual = 0.10405557, Final residual = 0.001850655, No Iterations 2

Solving energy coupled regions
Using lduPrimitiveAssembly: lduAssembly456789
DILUPBiCGStab:  Solving for h, Initial residual = 0.0084632196, Final residual = 0.00011115884, No Iterations 1
limitTemperature=limitT, Type=Lower, LimitedCells=0, CellsPercent=0, Tmin=250, UnlimitedTmin=299.99935
limitTemperature=limitT, Type=Upper, LimitedCells=0, CellsPercent=0, Tmax=6000, UnlimitedTmax=300.82674
limitTemperature=limitT, Type=Lower, LimitedCells=0, CellsPercent=0, Tmin=250, UnlimitedTmin=299.99945
limitTemperature=limitT, Type=Upper, LimitedCells=0, CellsPercent=0, Tmax=6000, UnlimitedTmax=301.54563
limitTemperature=limitT, Type=Lower, LimitedCells=0, CellsPercent=0, Tmin=250, UnlimitedTmin=306.986
limitTemperature=limitT, Type=Upper, LimitedCells=0, CellsPercent=0, Tmax=6000, UnlimitedTmax=308.52529
limitTemperature=limitT, Type=Lower, LimitedCells=0, CellsPercent=0, Tmin=250, UnlimitedTmin=304.97892
limitTemperature=limitT, Type=Upper, LimitedCells=0, CellsPercent=0, Tmax=6000, UnlimitedTmax=306.01849
limitTemperature=limitT, Type=Lower, LimitedCells=0, CellsPercent=0, Tmin=250, UnlimitedTmin=301.72027
limitTemperature=limitT, Type=Upper, LimitedCells=0, CellsPercent=0, Tmax=6000, UnlimitedTmax=302.15573
limitTemperature=limitT, Type=Lower, LimitedCells=0, CellsPercent=0, Tmin=250, UnlimitedTmin=301.47965
limitTemperature=limitT, Type=Upper, LimitedCells=0, CellsPercent=0, Tmax=6000, UnlimitedTmax=302.25596
limitTemperature=limitT, Type=Lower, LimitedCells=0, CellsPercent=0, Tmin=250, UnlimitedTmin=301.84981
limitTemperature=limitT, Type=Upper, LimitedCells=0, CellsPercent=0, Tmax=6000, UnlimitedTmax=302.57501
DICPBiCGStab:  Solving for p_rgh, Initial residual = 0.3667406, Final residual = 0.036627234, No Iterations 16
time step continuity errors : sum local = 0.014022347, global = 0.012557867, cumulative = 0.045067088
Min/max rho:1.1497088 1.1766632
DILUPBiCGStab:  Solving for epsilon, Initial residual = 0.057954656, Final residual = 0.0013145258, No Iterations 1
bounding epsilon, min: -0.16307853 max: 10 average: 0.030386539
DILUPBiCGStab:  Solving for k, Initial residual = 0.061619758, Final residual = 0.0022453878, No Iterations 1
ExecutionTime = 1.09 s  ClockTime = 1 s

volFieldValue fluid write:
    volAverage(fluid) of T = 300.00504

volFieldValue pcb write:
    volAverage(pcb) of T = 300.10853

volFieldValue component_0 write:
    volAverage(component_0) of T = 308.71653

volFieldValue component_1 write:
    volAverage(component_1) of T = 306.14916

volFieldValue component_2 write:
    volAverage(component_2) of T = 302.15626

volFieldValue component_3 write:
    volAverage(component_3) of T = 302.16553

volFieldValue component_4 write:
    volAverage(component_4) of T = 302.5504

Time = 10


Solving for fluid region fluid
DILUPBiCGStab:  Solving for Ux, Initial residual = 0.065510832, Final residual = 0.0011716641, No Iterations 2
DILUPBiCGStab:  Solving for Uy, Initial residual = 0.07360449, Final residual = 0.0011633606, No Iterations 2

Solving energy coupled regions
Using lduPrimitiveAssembly: lduAssembly456789
DILUPBiCGStab:  Solving for h, Initial residual = 0.0083045416, Final residual = 0.00011171303, No Iterations 1
limitTemperature=limitT, Type=Lower, LimitedCells=0, CellsPercent=0, Tmin=250, UnlimitedTmin=299.99945
limitTemperature=limitT, Type=Upper, LimitedCells=0, CellsPercent=0, Tmax=6000, UnlimitedTmax=300.71195
limitTemperature=limitT, Type=Lower, LimitedCells=0, CellsPercent=0, Tmin=250, UnlimitedTmin=299.99947
limitTemperature=limitT, Type=Upper, LimitedCells=0, CellsPercent=0, Tmax=6000, UnlimitedTmax=301.869
limitTemperature=limitT, Type=Lower, LimitedCells=0, CellsPercent=0, Tmin=250, UnlimitedTmin=307.87531
limitTemperature=limitT, Type=Upper, LimitedCells=0, CellsPercent=0, Tmax=6000, UnlimitedTmax=309.49515
limitTemperature=limitT, Type=Lower, LimitedCells=0, CellsPercent=0, Tmin=250, UnlimitedTmin=305.63965
limitTemperature=limitT, Type=Upper, LimitedCells=0, CellsPercent=0, Tmax=6000, UnlimitedTmax=306.69837
limitTemperature=limitT, Type=Lower, LimitedCells=0, CellsPercent=0, Tmin=250, UnlimitedTmin=301.94014
limitTemperature=limitT, Type=Upper, LimitedCells=0, CellsPercent=0, Tmax=6000, UnlimitedTmax=302.40998
limitTemperature=limitT, Type=Lower, LimitedCells=0, CellsPercent=0, Tmin=250, UnlimitedTmin=301.67616
limitTemperature=limitT, Type=Upper, LimitedCells=0, CellsPercent=0, Tmax=6000, UnlimitedTmax=302.52029
limitTemperature=limitT, Type=Lower, LimitedCells=0, CellsPercent=0, Tmin=250, UnlimitedTmin=302.08142
limitTemperature=limitT, Type=Upper, LimitedCells=0, CellsPercent=0, Tmax=6000, UnlimitedTmax=302.87858
DICPBiCGStab:  Solving for p_rgh, Initial residual = 0.42314888, Final residual = 0.040935879, No Iterations 26
time step continuity errors : sum local = 0.016695715, global = 0.010223559, cumulative = 0.055290648
Min/max rho:1.1461533 1.1766621
DILUPBiCGStab:  Solving for epsilon, Initial residual = 0.087817583, Final residual = 0.0016835077, No Iterations 1
bounding epsilon, min: -0.10803968 max: 10 average: 0.026915516
DILUPBiCGStab:  Solving for k, Initial residual = 0.033479621, Final residual = 0.0012837552, No Iterations 1
bounding k, min: -4.3039292e-05 max: 0.5 average: 0.016448405
ExecutionTime = 1.19 s  ClockTime = 1 s

volFieldValue fluid write:
    volAverage(fluid) of T = 300.00604

volFieldValue pcb write:
    volAverage(pcb) of T = 300.12954

volFieldValue component_0 write:
    volAverage(component_0) of T = 309.64018

volFieldValue component_1 write:
    volAverage(component_1) of T = 306.80028

volFieldValue component_2 write:
    volAverage(component_2) of T = 302.38897

volFieldValue component_3 write:
    volAverage(component_3) of T = 302.39585

volFieldValue component_4 write:
    volAverage(component_4) of T = 302.82104

Time = 11


Solving for fluid region fluid
DILUPBiCGStab:  Solving for Ux, Initial residual = 0.057432151, Final residual = 0.0013742566, No Iterations 2
DILUPBiCGStab:  Solving for Uy, Initial residual = 0.054196878, Final residual = 0.0011821052, No Iterations 2

Solving energy coupled regions
Using lduPrimitiveAssembly: lduAssembly456789
DILUPBiCGStab:  Solving for h, Initial residual = 0.0084292135, Final residual = 0.00011478545, No Iterations 1
limitTemperature=limitT, Type=Lower, LimitedCells=0, CellsPercent=0, Tmin=250, UnlimitedTmin=299.99966
limitTemperature=limitT, Type=Upper, LimitedCells=0, CellsPercent=0, Tmax=6000, UnlimitedTmax=300.83676
limitTemperature=limitT, Type=Lower, LimitedCells=0, CellsPercent=0, Tmin=250, UnlimitedTmin=299.99965
limitTemperature=limitT, Type=Upper, LimitedCells=0, CellsPercent=0, Tmax=6000, UnlimitedTmax=302.21351
limitTemperature=limitT, Type=Lower, LimitedCells=0, CellsPercent=0, Tmin=250, UnlimitedTmin=308.78491
limitTemperature=limitT, Type=Upper, LimitedCells=0, CellsPercent=0, Tmax=6000, UnlimitedTmax=310.45456
limitTemperature=limitT, Type=Lower, LimitedCells=0, CellsPercent=0, Tmin=250, UnlimitedTmin=306.3001
limitTemperature=limitT, Type=Upper, LimitedCells=0, CellsPercent=0, Tmax=6000, UnlimitedTmax=307.37995
limitTemperature=limitT, Type=Lower, LimitedCells=0, CellsPercent=0, Tmin=250, UnlimitedTmin=302.15679
limitTemperature=limitT, Type=Upper, LimitedCells=0, CellsPercent=0, Tmax=6000, UnlimitedTmax=302.66205
limitTemperature=limitT, Type=Lower, LimitedCells=0, CellsPercent=0, Tmin=250, UnlimitedTmin=301.87338
limitTemperature=limitT, Type=Upper, LimitedCells=0, CellsPercent=0, Tmax=6000, UnlimitedTmax=302.78167
limitTemperature=limitT, Type=Lower, LimitedCells=0, CellsPercent=0, Tmin=250, UnlimitedTmin=302.31402
limitTemperature=limitT, Type=Upper, LimitedCells=0, CellsPercent=0, Tmax=6000, UnlimitedTmax=303.17974
DICPBiCGStab:  Solving for p_rgh, Initial residual = 0.38415996, Final residual = 0.037454787, No Iterations 24
time step continuity errors : sum local = 0.016349532, global = 0.00710006, cumulative = 0.062390708
Min/max rho:1.1426926 1.1766593
DILUPBiCGStab:  Solving for epsilon, Initial residual = 0.041063805, Final residual = 0.0011613885, No Iterations 1
bounding epsilon, min: -0.14497057 max: 10 average: 0.023478757
DILUPBiCGStab:  Solving for k, Initial residual = 0.023590509, Final residual = 0.00087310796, No Iterations 1
ExecutionTime = 1.23 s  ClockTime = 1 s

volFieldValue fluid write:
    volAverage(fluid) of T = 300.00709

volFieldValue pcb write:
    volAverage(pcb) of T = 300.15212

volFieldValue component_0 write:
    volAverage(component_0) of T = 310.55579

volFieldValue component_1 write:
    volAverage(component_1) of T = 307.43994

volFieldValue component_2 write:
    volAverage(component_2) of T = 302.62112

volFieldValue component_3 write:
    volAverage(component_3) of T = 302.62515

volFieldValue component_4 write:
    volAverage(component_4) of T = 303.09064

Time = 12


Solving for fluid region fluid
DILUPBiCGStab:  Solving for Ux, Initial residual = 0.046875546, Final residual = 0.00083622589, No Iterations 2
DILUPBiCGStab:  Solving for Uy, Initial residual = 0.049502624, Final residual = 0.00090495695, No Iterations 2

Solving energy coupled regions
Using lduPrimitiveAssembly: lduAssembly456789
DILUPBiCGStab:  Solving for h, Initial residual = 0.0081973365, Final residual = 0.00011288884, No Iterations 1
limitTemperature=limitT, Type=Lower, LimitedCells=0, CellsPercent=0, Tmin=250, UnlimitedTmin=299.99971
limitTemperature=limitT, Type=Upper, LimitedCells=0, CellsPercent=0, Tmax=6000, UnlimitedTmax=300.78397
limitTemperature=limitT, Type=Lower, LimitedCells=0, CellsPercent=0, Tmin=250, UnlimitedTmin=299.99977
limitTemperature=limitT, Type=Upper, LimitedCells=0, CellsPercent=0, Tmax=6000, UnlimitedTmax=302.57766
limitTemperature=limitT, Type=Lower, LimitedCells=0, CellsPercent=0, Tmin=250, UnlimitedTmin=309.6058
limitTemperature=limitT, Type=Upper, LimitedCells=0, CellsPercent=0, Tmax=6000, UnlimitedTmax=311.40552
limitTemperature=limitT, Type=Lower, LimitedCells=0, CellsPercent=0, Tmin=250, UnlimitedTmin=306.93953
limitTemperature=limitT, Type=Upper, LimitedCells=0, CellsPercent=0, Tmax=6000, UnlimitedTmax=308.04552
limitTemperature=limitT, Type=Lower, LimitedCells=0, CellsPercent=0, Tmin=250, UnlimitedTmin=302.36236
limitTemperature=limitT, Type=Upper, LimitedCells=0, CellsPercent=0, Tmax=6000, UnlimitedTmax=302.91224
limitTemperature=limitT, Type=Lower, LimitedCells=0, CellsPercent=0, Tmin=250, UnlimitedTmin=302.06357
limitTemperature=limitT, Type=Upper, LimitedCells=0, CellsPercent=0, Tmax=6000, UnlimitedTmax=303.04025
limitTemperature=limitT, Type=Lower, LimitedCells=0, CellsPercent=0, Tmin=250, UnlimitedTmin=302.52703
limitTemperature=limitT, Type=Upper, LimitedCells=0, CellsPercent=0, Tmax=6000, UnlimitedTmax=303.47861
DICPBiCGStab:  Solving for p_rgh, Initial residual = 0.29687501, Final residual = 0.029211228, No Iterations 29
time step continuity errors : sum local = 0.013651278, global = -0.00035040285, cumulative = 0.062040305
Min/max rho:1.1392964 1.1766556
DILUPBiCGStab:  Solving for epsilon, Initial residual = 0.081627832, Final residual = 0.0015475606, No Iterations 1
bounding epsilon, min: -0.073157954 max: 10 average: 0.022280623
DILUPBiCGStab:  Solving for k, Initial residual = 0.016789459, Final residual = 0.000618566, No Iterations 1
ExecutionTime = 1.3 s  ClockTime = 1 s

volFieldValue fluid write:
    volAverage(fluid) of T = 300.00807

volFieldValue pcb write:
    volAverage(pcb) of T = 300.17607

volFieldValue component_0 write:
    volAverage(component_0) of T = 311.46147

volFieldValue component_1 write:
    volAverage(component_1) of T = 308.06998

volFieldValue component_2 write:
    volAverage(component_2) of T = 302.85256

volFieldValue component_3 write:
    volAverage(component_3) of T = 302.8537

volFieldValue component_4 write:
    volAverage(component_4) of T = 303.35926

Time = 13


Solving for fluid region fluid
DILUPBiCGStab:  Solving for Ux, Initial residual = 0.063420721, Final residual = 0.00094874545, No Iterations 2
DILUPBiCGStab:  Solving for Uy, Initial residual = 0.054011738, Final residual = 0.00098071497, No Iterations 2

Solving energy coupled regions
Using lduPrimitiveAssembly: lduAssembly456789
DILUPBiCGStab:  Solving for h, Initial residual = 0.0083475861, Final residual = 0.00011498283, No Iterations 1
limitTemperature=limitT, Type=Lower, LimitedCells=0, CellsPercent=0, Tmin=250, UnlimitedTmin=299.99972
limitTemperature=limitT, Type=Upper, LimitedCells=0, CellsPercent=0, Tmax=6000, UnlimitedTmax=300.89424
limitTemperature=limitT, Type=Lower, LimitedCells=0, CellsPercent=0, Tmin=250, UnlimitedTmin=299.99977
limitTemperature=limitT, Type=Upper, LimitedCells=0, CellsPercent=0, Tmax=6000, UnlimitedTmax=302.96008
limitTemperature=limitT, Type=Lower, LimitedCells=0, CellsPercent=0, Tmin=250, UnlimitedTmin=310.33157
limitTemperature=limitT, Type=Upper, LimitedCells=0, CellsPercent=0, Tmax=6000, UnlimitedTmax=312.34871
limitTemperature=limitT, Type=Lower, LimitedCells=0, CellsPercent=0, Tmin=250, UnlimitedTmin=307.38631
limitTemperature=limitT, Type=Upper, LimitedCells=0, CellsPercent=0, Tmax=6000, UnlimitedTmax=308.69812
limitTemperature=limitT, Type=Lower, LimitedCells=0, CellsPercent=0, Tmin=250, UnlimitedTmin=302.56011
limitTemperature=limitT, Type=Upper, LimitedCells=0, CellsPercent=0, Tmax=6000, UnlimitedTmax=303.16061
limitTemperature=limitT, Type=Lower, LimitedCells=0, CellsPercent=0, Tmin=250, UnlimitedTmin=302.24742
limitTemperature=limitT, Type=Upper, LimitedCells=0, CellsPercent=0, Tmax=6000, UnlimitedTmax=303.29687
limitTemperature=limitT, Type=Lower, LimitedCells=0, CellsPercent=0, Tmin=250, UnlimitedTmin=302.73631
limitTemperature=limitT, Type=Upper, LimitedCells=0, CellsPercent=0, Tmax=6000, UnlimitedTmax=303.77523
DICPBiCGStab:  Solving for p_rgh, Initial residual = 0.20877631, Final residual = 0.019341133, No Iterations 25
time step continuity errors : sum local = 0.01070788, global = 0.0014868612, cumulative = 0.063527166
Min/max rho:1.1359359 1.1766556
DILUPBiCGStab:  Solving for epsilon, Initial residual = 0.035319172, Final residual = 0.0011155804, No Iterations 1
bounding epsilon, min: -0.16683205 max: 10 average: 0.020047414
DILUPBiCGStab:  Solving for k, Initial residual = 0.011693229, Final residual = 0.0004502734, No Iterations 1
ExecutionTime = 1.39 s  ClockTime = 1 s

volFieldValue fluid write:
    volAverage(fluid) of T = 300.00938

volFieldValue pcb write:
    volAverage(pcb) of T = 300.20132

volFieldValue component_0 write:
    volAverage(component_0) of T = 312.36387

volFieldValue component_1 write:
    volAverage(component_1) of T = 308.70005

volFieldValue component_2 write:
    volAverage(component_2) of T = 303.08329

volFieldValue component_3 write:
    volAverage(component_3) of T = 303.0817

volFieldValue component_4 write:
    volAverage(component_4) of T = 303.62676

Time = 14


Solving for fluid region fluid
DILUPBiCGStab:  Solving for Ux, Initial residual = 0.095248319, Final residual = 0.0014140657, No Iterations 2
DILUPBiCGStab:  Solving for Uy, Initial residual = 0.043192927, Final residual = 0.00082549602, No Iterations 2

Solving energy coupled regions
Using lduPrimitiveAssembly: lduAssembly456789
DILUPBiCGStab:  Solving for h, Initial residual = 0.0082317658, Final residual = 0.00011211942, No Iterations 1
limitTemperature=limitT, Type=Lower, LimitedCells=0, CellsPercent=0, Tmin=250, UnlimitedTmin=299.99972
limitTemperature=limitT, Type=Upper, LimitedCells=0, CellsPercent=0, Tmax=6000, UnlimitedTmax=301.25045
limitTemperature=limitT, Type=Lower, LimitedCells=0, CellsPercent=0, Tmin=250, UnlimitedTmin=299.99977
limitTemperature=limitT, Type=Upper, LimitedCells=0, CellsPercent=0, Tmax=6000, UnlimitedTmax=303.35951
limitTemperature=limitT, Type=Lower, LimitedCells=0, CellsPercent=0, Tmin=250, UnlimitedTmin=311.07453
limitTemperature=limitT, Type=Upper, LimitedCells=0, CellsPercent=0, Tmax=6000, UnlimitedTmax=313.28521
limitTemperature=limitT, Type=Lower, LimitedCells=0, CellsPercent=0, Tmin=250, UnlimitedTmin=307.89645
limitTemperature=limitT, Type=Upper, LimitedCells=0, CellsPercent=0, Tmax=6000, UnlimitedTmax=309.36114
limitTemperature=limitT, Type=Lower, LimitedCells=0, CellsPercent=0, Tmin=250, UnlimitedTmin=302.75608
limitTemperature=limitT, Type=Upper, LimitedCells=0, CellsPercent=0, Tmax=6000, UnlimitedTmax=303.40733
limitTemperature=limitT, Type=Lower, LimitedCells=0, CellsPercent=0, Tmin=250, UnlimitedTmin=302.43156
limitTemperature=limitT, Type=Upper, LimitedCells=0, CellsPercent=0, Tmax=6000, UnlimitedTmax=303.55205
limitTemperature=limitT, Type=Lower, LimitedCells=0, CellsPercent=0, Tmin=250, UnlimitedTmin=302.95939
limitTemperature=limitT, Type=Upper, LimitedCells=0, CellsPercent=0, Tmax=6000, UnlimitedTmax=304.06968
DICPBiCGStab:  Solving for p_rgh, Initial residual = 0.21460499, Final residual = 0.021425132, No Iterations 18
time step continuity errors : sum local = 0.011781402, global = -0.0040302041, cumulative = 0.059496962
Min/max rho:1.1325301 1.1766556
DILUPBiCGStab:  Solving for epsilon, Initial residual = 0.077493619, Final residual = 0.0015367981, No Iterations 1
bounding epsilon, min: -0.073412222 max: 10 average: 0.019810221
DILUPBiCGStab:  Solving for k, Initial residual = 0.010482684, Final residual = 0.00035344502, No Iterations 1
ExecutionTime = 1.47 s  ClockTime = 1 s

volFieldValue fluid write:
    volAverage(fluid) of T = 300.01073

volFieldValue pcb write:
    volAverage(pcb) of T = 300.22828

volFieldValue component_0 write:
    volAverage(component_0) of T = 313.26614

volFieldValue component_1 write:
    volAverage(component_1) of T = 309.33019

volFieldValue component_2 write:
    volAverage(component_2) of T = 303.3136

volFieldValue component_3 write:
    volAverage(component_3) of T = 303.31

volFieldValue component_4 write:
    volAverage(component_4) of T = 303.89373

Time = 15


Solving for fluid region fluid
DILUPBiCGStab:  Solving for Ux, Initial residual = 0.15783196, Final residual = 0.0027387738, No Iterations 2
DILUPBiCGStab:  Solving for Uy, Initial residual = 0.042756119, Final residual = 0.00068301108, No Iterations 2

Solving energy coupled regions
Using lduPrimitiveAssembly: lduAssembly456789
DILUPBiCGStab:  Solving for h, Initial residual = 0.0084848601, Final residual = 0.00011887934, No Iterations 1
limitTemperature=limitT, Type=Lower, LimitedCells=0, CellsPercent=0, Tmin=250, UnlimitedTmin=299.99976
limitTemperature=limitT, Type=Upper, LimitedCells=0, CellsPercent=0, Tmax=6000, UnlimitedTmax=301.53827
limitTemperature=limitT, Type=Lower, LimitedCells=0, CellsPercent=0, Tmin=250, UnlimitedTmin=299.99979
limitTemperature=limitT, Type=Upper, LimitedCells=0, CellsPercent=0, Tmax=6000, UnlimitedTmax=303.7748
limitTemperature=limitT, Type=Lower, LimitedCells=0, CellsPercent=0, Tmin=250, UnlimitedTmin=311.88671
limitTemperature=limitT, Type=Upper, LimitedCells=0, CellsPercent=0, Tmax=6000, UnlimitedTmax=314.21568
limitTemperature=limitT, Type=Lower, LimitedCells=0, CellsPercent=0, Tmin=250, UnlimitedTmin=308.45072
limitTemperature=limitT, Type=Upper, LimitedCells=0, CellsPercent=0, Tmax=6000, UnlimitedTmax=310.01444
limitTemperature=limitT, Type=Lower, LimitedCells=0, CellsPercent=0, Tmin=250, UnlimitedTmin=302.96536
limitTemperature=limitT, Type=Upper, LimitedCells=0, CellsPercent=0, Tmax=6000, UnlimitedTmax=303.65251
limitTemperature=limitT, Type=Lower, LimitedCells=0, CellsPercent=0, Tmin=250, UnlimitedTmin=302.62292
limitTemperature=limitT, Type=Upper, LimitedCells=0, CellsPercent=0, Tmax=6000, UnlimitedTmax=303.80487
limitTemperature=limitT, Type=Lower, LimitedCells=0, CellsPercent=0, Tmin=250, UnlimitedTmin=303.18979
limitTemperature=limitT, Type=Upper, LimitedCells=0, CellsPercent=0, Tmax=6000, UnlimitedTmax=304.36195
DICPBiCGStab:  Solving for p_rgh, Initial residual = 0.2293272, Final residual = 0.022695937, No Iterations 19
time step continuity errors : sum local = 0.014181066, global = -0.010196519, cumulative = 0.049300443
Min/max rho:1.1291399 1.1766557
DILUPBiCGStab:  Solving for epsilon, Initial residual = 0.036595554, Final residual = 0.0010452981, No Iterations 1
bounding epsilon, min: -0.17633103 max: 10 average: 0.018350225
DILUPBiCGStab:  Solving for k, Initial residual = 0.0081035882, Final residual = 0.0002851858, No Iterations 1
ExecutionTime = 1.5 s  ClockTime = 1 s

volFieldValue fluid write:
    volAverage(fluid) of T = 300.01204

volFieldValue pcb write:
    volAverage(pcb) of T = 300.25669

volFieldValue component_0 write:
    volAverage(component_0) of T = 314.16821

volFieldValue component_1 write:
    volAverage(component_1) of T = 309.95866

volFieldValue component_2 write:
    volAverage(component_2) of T = 303.54318

volFieldValue component_3 write:
    volAverage(component_3) of T = 303.53726

volFieldValue component_4 write:
    volAverage(component_4) of T = 304.15873

Time = 16


Solving for fluid region fluid
DILUPBiCGStab:  Solving for Ux, Initial residual = 0.070914874, Final residual = 8.4895256e-05, No Iterations 3
DILUPBiCGStab:  Solving for Uy, Initial residual = 0.048144876, Final residual = 0.0020039446, No Iterations 2

Solving energy coupled regions
Using lduPrimitiveAssembly: lduAssembly456789
DILUPBiCGStab:  Solving for h, Initial residual = 0.0083299451, Final residual = 0.00011707285, No Iterations 1
limitTemperature=limitT, Type=Lower, LimitedCells=0, CellsPercent=0, Tmin=250, UnlimitedTmin=299.99979
limitTemperature=limitT, Type=Upper, LimitedCells=0, CellsPercent=0, Tmax=6000, UnlimitedTmax=301.19563
limitTemperature=limitT, Type=Lower, LimitedCells=0, CellsPercent=0, Tmin=250, UnlimitedTmin=299.9998
limitTemperature=limitT, Type=Upper, LimitedCells=0, CellsPercent=0, Tmax=6000, UnlimitedTmax=304.20498
limitTemperature=limitT, Type=Lower, LimitedCells=0, CellsPercent=0, Tmin=250, UnlimitedTmin=312.76275
limitTemperature=limitT, Type=Upper, LimitedCells=0, CellsPercent=0, Tmax=6000, UnlimitedTmax=315.14298
limitTemperature=limitT, Type=Lower, LimitedCells=0, CellsPercent=0, Tmin=250, UnlimitedTmin=309.06535
limitTemperature=limitT, Type=Upper, LimitedCells=0, CellsPercent=0, Tmax=6000, UnlimitedTmax=310.64904
limitTemperature=limitT, Type=Lower, LimitedCells=0, CellsPercent=0, Tmin=250, UnlimitedTmin=303.14958
limitTemperature=limitT, Type=Upper, LimitedCells=0, CellsPercent=0, Tmax=6000, UnlimitedTmax=303.89625
limitTemperature=limitT, Type=Lower, LimitedCells=0, CellsPercent=0, Tmin=250, UnlimitedTmin=302.81979
limitTemperature=limitT, Type=Upper, LimitedCells=0, CellsPercent=0, Tmax=6000, UnlimitedTmax=304.05579
limitTemperature=limitT, Type=Lower, LimitedCells=0, CellsPercent=0, Tmin=250, UnlimitedTmin=303.40251
limitTemperature=limitT, Type=Upper, LimitedCells=0, CellsPercent=0, Tmax=6000, UnlimitedTmax=304.65204
DICPBiCGStab:  Solving for p_rgh, Initial residual = 0.21240152, Final residual = 0.021234446, No Iterations 19
time step continuity errors : sum local = 0.015613321, global = -0.014624902, cumulative = 0.034675541
Min/max rho:1.125802 1.1766557
DILUPBiCGStab:  Solving for epsilon, Initial residual = 0.090131972, Final residual = 0.001617825, No Iterations 1
bounding epsilon, min: -0.12572561 max: 10 average: 0.018496026
DILUPBiCGStab:  Solving for k, Initial residual = 0.008514214, Final residual = 0.00027358916, No Iterations 1
ExecutionTime = 1.59 s  ClockTime = 2 s

volFieldValue fluid write:
    volAverage(fluid) of T = 300.01341

volFieldValue pcb write:
    volAverage(pcb) of T = 300.28657

volFieldValue component_0 write:
    volAverage(component_0) of T = 315.06691

volFieldValue component_1 write:
    volAverage(component_1) of T = 310.58183

volFieldValue component_2 write:
    volAverage(component_2) of T = 303.77155

volFieldValue component_3 write:
    volAverage(component_3) of T = 303.76249

volFieldValue component_4 write:
    volAverage(component_4) of T = 304.42002

Time = 17


Solving for fluid region fluid
DILUPBiCGStab:  Solving for Ux, Initial residual = 0.04916353, Final residual = 0.0010448782, No Iterations 2
DILUPBiCGStab:  Solving for Uy, Initial residual = 0.072274819, Final residual = 0.0012816503, No Iterations 2

Solving energy coupled regions
Using lduPrimitiveAssembly: lduAssembly456789
DILUPBiCGStab:  Solving for h, Initial residual = 0.0086393657, Final residual = 0.00011988075, No Iterations 1
limitTemperature=limitT, Type=Lower, LimitedCells=0, CellsPercent=0, Tmin=250, UnlimitedTmin=299.99981
limitTemperature=limitT, Type=Upper, LimitedCells=0, CellsPercent=0, Tmax=6000, UnlimitedTmax=301.50195
limitTemperature=limitT, Type=Lower, LimitedCells=0, CellsPercent=0, Tmin=250, UnlimitedTmin=299.99982
limitTemperature=limitT, Type=Upper, LimitedCells=0, CellsPercent=0, Tmax=6000, UnlimitedTmax=304.64874
limitTemperature=limitT, Type=Lower, LimitedCells=0, CellsPercent=0, Tmin=250, UnlimitedTmin=313.70904
limitTemperature=limitT, Type=Upper, LimitedCells=0, CellsPercent=0, Tmax=6000, UnlimitedTmax=316.06676
limitTemperature=limitT, Type=Lower, LimitedCells=0, CellsPercent=0, Tmin=250, UnlimitedTmin=309.75362
limitTemperature=limitT, Type=Upper, LimitedCells=0, CellsPercent=0, Tmax=6000, UnlimitedTmax=311.27223
limitTemperature=limitT, Type=Lower, LimitedCells=0, CellsPercent=0, Tmin=250, UnlimitedTmin=303.34509
limitTemperature=limitT, Type=Upper, LimitedCells=0, CellsPercent=0, Tmax=6000, UnlimitedTmax=304.14011
limitTemperature=limitT, Type=Lower, LimitedCells=0, CellsPercent=0, Tmin=250, UnlimitedTmin=303.00242
limitTemperature=limitT, Type=Upper, LimitedCells=0, CellsPercent=0, Tmax=6000, UnlimitedTmax=304.30502
limitTemperature=limitT, Type=Lower, LimitedCells=0, CellsPercent=0, Tmin=250, UnlimitedTmin=303.55943
limitTemperature=limitT, Type=Upper, LimitedCells=0, CellsPercent=0, Tmax=6000, UnlimitedTmax=304.94007
DICPBiCGStab:  Solving for p_rgh, Initial residual = 0.19054047, Final residual = 0.017630896, No Iterations 70
time step continuity errors : sum local = 0.014510113, global = -0.0014457194, cumulative = 0.033229822
Min/max rho:1.1225234 1.1766557
DILUPBiCGStab:  Solving for epsilon, Initial residual = 0.037234629, Final residual = 0.0010762479, No Iterations 1
bounding epsilon, min: -0.19043856 max: 10 average: 0.017240617
DILUPBiCGStab:  Solving for k, Initial residual = 0.0063602266, Final residual = 0.00025709925, No Iterations 1
ExecutionTime = 1.7 s  ClockTime = 2 s

volFieldValue fluid write:
    volAverage(fluid) of T = 300.01477

volFieldValue pcb write:
    volAverage(pcb) of T = 300.31826

volFieldValue component_0 write:
    volAverage(component_0) of T = 315.95893

volFieldValue component_1 write:
    volAverage(component_1) of T = 311.19814

volFieldValue component_2 write:
    volAverage(component_2) of T = 303.99808

volFieldValue component_3 write:
    volAverage(component_3) of T = 303.98567

volFieldValue component_4 write:
    volAverage(component_4) of T = 304.67641

Time = 18


Solving for fluid region fluid
DILUPBiCGStab:  Solving for Ux, Initial residual = 0.0223861, Final residual = 0.00049098557, No Iterations 2
DILUPBiCGStab:  Solving for Uy, Initial residual = 0.089701722, Final residual = 0.0011984148, No Iterations 2

Solving energy coupled regions
Using lduPrimitiveAssembly: lduAssembly456789
DILUPBiCGStab:  Solving for h, Initial residual = 0.0085592374, Final residual = 0.00013451248, No Iterations 1
limitTemperature=limitT, Type=Lower, LimitedCells=0, CellsPercent=0, Tmin=250, UnlimitedTmin=299.99983
limitTemperature=limitT, Type=Upper, LimitedCells=0, CellsPercent=0, Tmax=6000, UnlimitedTmax=302.75058
limitTemperature=limitT, Type=Lower, LimitedCells=0, CellsPercent=0, Tmin=250, UnlimitedTmin=299.99983
limitTemperature=limitT, Type=Upper, LimitedCells=0, CellsPercent=0, Tmax=6000, UnlimitedTmax=305.10505
limitTemperature=limitT, Type=Lower, LimitedCells=0, CellsPercent=0, Tmin=250, UnlimitedTmin=314.64295
limitTemperature=limitT, Type=Upper, LimitedCells=0, CellsPercent=0, Tmax=6000, UnlimitedTmax=316.98398
limitTemperature=limitT, Type=Lower, LimitedCells=0, CellsPercent=0, Tmin=250, UnlimitedTmin=310.4584
limitTemperature=limitT, Type=Upper, LimitedCells=0, CellsPercent=0, Tmax=6000, UnlimitedTmax=311.89105
limitTemperature=limitT, Type=Lower, LimitedCells=0, CellsPercent=0, Tmin=250, UnlimitedTmin=303.52567
limitTemperature=limitT, Type=Upper, LimitedCells=0, CellsPercent=0, Tmax=6000, UnlimitedTmax=304.38274
limitTemperature=limitT, Type=Lower, LimitedCells=0, CellsPercent=0, Tmin=250, UnlimitedTmin=303.15819
limitTemperature=limitT, Type=Upper, LimitedCells=0, CellsPercent=0, Tmax=6000, UnlimitedTmax=304.55264
limitTemperature=limitT, Type=Lower, LimitedCells=0, CellsPercent=0, Tmin=250, UnlimitedTmin=303.68517
limitTemperature=limitT, Type=Upper, LimitedCells=0, CellsPercent=0, Tmax=6000, UnlimitedTmax=305.22607
DICPBiCGStab:  Solving for p_rgh, Initial residual = 0.41260673, Final residual = 0.040427238, No Iterations 50
time step continuity errors : sum local = 0.013478607, global = -0.013282761, cumulative = 0.01994706
Min/max rho:1.1192562 1.1766557
DILUPBiCGStab:  Solving for epsilon, Initial residual = 0.11079504, Final residual = 0.0017247648, No Iterations 1
bounding epsilon, min: -0.11916771 max: 10 average: 0.0178718
DILUPBiCGStab:  Solving for k, Initial residual = 0.0087319219, Final residual = 0.00025569094, No Iterations 1
ExecutionTime = 1.79 s  ClockTime = 2 s

volFieldValue fluid write:
    volAverage(fluid) of T = 300.01635

volFieldValue pcb write:
    volAverage(pcb) of T = 300.3504

volFieldValue component_0 write:
    volAverage(component_0) of T = 316.83914

volFieldValue component_1 write:
    volAverage(component_1) of T = 311.79818

volFieldValue component_2 write:
    volAverage(component_2) of T = 304.22298

volFieldValue component_3 write:
    volAverage(component_3) of T = 304.20651

volFieldValue component_4 write:
    volAverage(component_4) of T = 304.92919

Time = 19


Solving for fluid region fluid
DILUPBiCGStab:  Solving for Ux, Initial residual = 0.038982995, Final residual = 0.0006602882, No Iterations 2
DILUPBiCGStab:  Solving for Uy, Initial residual = 0.098678663, Final residual = 0.0017573777, No Iterations 2

Solving energy coupled regions
Using lduPrimitiveAssembly: lduAssembly456789
DILUPBiCGStab:  Solving for h, Initial residual = 0.0088047097, Final residual = 0.00012368327, No Iterations 1
limitTemperature=limitT, Type=Lower, LimitedCells=0, CellsPercent=0, Tmin=250, UnlimitedTmin=299.99982
limitTemperature=limitT, Type=Upper, LimitedCells=0, CellsPercent=0, Tmax=6000, UnlimitedTmax=301.2724
limitTemperature=limitT, Type=Lower, LimitedCells=0, CellsPercent=0, Tmin=250, UnlimitedTmin=299.99984
limitTemperature=limitT, Type=Upper, LimitedCells=0, CellsPercent=0, Tmax=6000, UnlimitedTmax=305.57292
limitTemperature=limitT, Type=Lower, LimitedCells=0, CellsPercent=0, Tmin=250, UnlimitedTmin=315.34618
limitTemperature=limitT, Type=Upper, LimitedCells=0, CellsPercent=0, Tmax=6000, UnlimitedTmax=317.89318
limitTemperature=limitT, Type=Lower, LimitedCells=0, CellsPercent=0, Tmin=250, UnlimitedTmin=310.96087
limitTemperature=limitT, Type=Upper, LimitedCells=0, CellsPercent=0, Tmax=6000, UnlimitedTmax=312.51169
limitTemperature=limitT, Type=Lower, LimitedCells=0, CellsPercent=0, Tmin=250, UnlimitedTmin=303.69809
limitTemperature=limitT, Type=Upper, LimitedCells=0, CellsPercent=0, Tmax=6000, UnlimitedTmax=304.62379
limitTemperature=limitT, Type=Lower, LimitedCells=0, CellsPercent=0, Tmin=250, UnlimitedTmin=303.27924
limitTemperature=limitT, Type=Upper, LimitedCells=0, CellsPercent=0, Tmax=6000, UnlimitedTmax=304.79823
limitTemperature=limitT, Type=Lower, LimitedCells=0, CellsPercent=0, Tmin=250, UnlimitedTmin=303.81918
limitTemperature=limitT, Type=Upper, LimitedCells=0, CellsPercent=0, Tmax=6000, UnlimitedTmax=305.50941
DICPBiCGStab:  Solving for p_rgh, Initial residual = 0.47800038, Final residual = 0.047415522, No Iterations 48
time step continuity errors : sum local = 0.013526813, global = -0.013407113, cumulative = 0.0065399475
Min/max rho:1.1160293 1.1766563
DILUPBiCGStab:  Solving for epsilon, Initial residual = 0.050369326, Final residual = 0.0011447702, No Iterations 1
bounding epsilon, min: -0.19812355 max: 10 average: 0.016754537
DILUPBiCGStab:  Solving for k, Initial residual = 0.0072711799, Final residual = 0.00027753412, No Iterations 1
ExecutionTime = 1.92 s  ClockTime = 2 s

volFieldValue fluid write:
    volAverage(fluid) of T = 300.01778

volFieldValue pcb write:
    volAverage(pcb) of T = 300.38383

volFieldValue component_0 write:
    volAverage(component_0) of T = 317.71273

volFieldValue component_1 write:
    volAverage(component_1) of T = 312.39161

volFieldValue component_2 write:
    volAverage(component_2) of T = 304.44813

volFieldValue component_3 write:
    volAverage(component_3) of T = 304.42516

volFieldValue component_4 write:
    volAverage(component_4) of T = 305.17909

Time = 20


Solving for fluid region fluid
DILUPBiCGStab:  Solving for Ux, Initial residual = 0.03948122, Final residual = 0.00054787722, No Iterations 2
DILUPBiCGStab:  Solving for Uy, Initial residual = 0.088099665, Final residual = 0.0012438972, No Iterations 2

Solving energy coupled regions
Using lduPrimitiveAssembly: lduAssembly456789
DILUPBiCGStab:  Solving for h, Initial residual = 0.0086949383, Final residual = 0.00011941924, No Iterations 1
limitTemperature=limitT, Type=Lower, LimitedCells=0, CellsPercent=0, Tmin=250, UnlimitedTmin=299.99982
limitTemperature=limitT, Type=Upper, LimitedCells=0, CellsPercent=0, Tmax=6000, UnlimitedTmax=301.45675
limitTemperature=limitT, Type=Lower, LimitedCells=0, CellsPercent=0, Tmin=250, UnlimitedTmin=299.99984
limitTemperature=limitT, Type=Upper, LimitedCells=0, CellsPercent=0, Tmax=6000, UnlimitedTmax=306.05185
limitTemperature=limitT, Type=Lower, LimitedCells=0, CellsPercent=0, Tmin=250, UnlimitedTmin=316.02967
limitTemperature=limitT, Type=Upper, LimitedCells=0, CellsPercent=0, Tmax=6000, UnlimitedTmax=318.79813
limitTemperature=limitT, Type=Lower, LimitedCells=0, CellsPercent=0, Tmin=250, UnlimitedTmin=311.46585
limitTemperature=limitT, Type=Upper, LimitedCells=0, CellsPercent=0, Tmax=6000, UnlimitedTmax=313.1278
limitTemperature=limitT, Type=Lower, LimitedCells=0, CellsPercent=0, Tmin=250, UnlimitedTmin=303.87116
limitTemperature=limitT, Type=Upper, LimitedCells=0, CellsPercent=0, Tmax=6000, UnlimitedTmax=304.86424
limitTemperature=limitT, Type=Lower, LimitedCells=0, CellsPercent=0, Tmin=250, UnlimitedTmin=303.39833
limitTemperature=limitT, Type=Upper, LimitedCells=0, CellsPercent=0, Tmax=6000, UnlimitedTmax=305.04288
limitTemperature=limitT, Type=Lower, LimitedCells=0, CellsPercent=0, Tmin=250, UnlimitedTmin=303.99874
limitTemperature=limitT, Type=Upper, LimitedCells=0, CellsPercent=0, Tmax=6000, UnlimitedTmax=305.79149
DICPBiCGStab:  Solving for p_rgh, Initial residual = 0.67273585, Final residual = 0.064789544, No Iterations 44
time step continuity errors : sum local = 0.014217734, global = -0.012382152, cumulative = -0.0058422041
Min/max rho:1.1128969 1.17666
DILUPBiCGStab:  Solving for epsilon, Initial residual = 0.1264681, Final residual = 0.0016277345, No Iterations 1
bounding epsilon, min: -0.14698517 max: 10 average: 0.017610471
DILUPBiCGStab:  Solving for k, Initial residual = 0.010323559, Final residual = 0.0002856106, No Iterations 1
ExecutionTime = 2.01 s  ClockTime = 2 s

volFieldValue fluid write:
    volAverage(fluid) of T = 300.01948

volFieldValue pcb write:
    volAverage(pcb) of T = 300.41834

volFieldValue component_0 write:
    volAverage(component_0) of T = 318.5772

volFieldValue component_1 write:
    volAverage(component_1) of T = 312.9735

volFieldValue component_2 write:
    volAverage(component_2) of T = 304.67336

volFieldValue component_3 write:
    volAverage(component_3) of T = 304.64182

volFieldValue component_4 write:
    volAverage(component_4) of T = 305.4188

Time = 21


Solving for fluid region fluid
DILUPBiCGStab:  Solving for Ux, Initial residual = 0.042587603, Final residual = 0.00073973586, No Iterations 2
DILUPBiCGStab:  Solving for Uy, Initial residual = 0.071613787, Final residual = 0.0010522456, No Iterations 2

Solving energy coupled regions
Using lduPrimitiveAssembly: lduAssembly456789
DILUPBiCGStab:  Solving for h, Initial residual = 0.0090956066, Final residual = 0.00013429162, No Iterations 1
limitTemperature=limitT, Type=Lower, LimitedCells=0, CellsPercent=0, Tmin=250, UnlimitedTmin=299.99985
limitTemperature=limitT, Type=Upper, LimitedCells=0, CellsPercent=0, Tmax=6000, UnlimitedTmax=301.38192
limitTemperature=limitT, Type=Lower, LimitedCells=0, CellsPercent=0, Tmin=250, UnlimitedTmin=299.99986
limitTemperature=limitT, Type=Upper, LimitedCells=0, CellsPercent=0, Tmax=6000, UnlimitedTmax=306.5433
limitTemperature=limitT, Type=Lower, LimitedCells=0, CellsPercent=0, Tmin=250, UnlimitedTmin=316.70195
limitTemperature=limitT, Type=Upper, LimitedCells=0, CellsPercent=0, Tmax=6000, UnlimitedTmax=319.69625
limitTemperature=limitT, Type=Lower, LimitedCells=0, CellsPercent=0, Tmin=250, UnlimitedTmin=311.96354
limitTemperature=limitT, Type=Upper, LimitedCells=0, CellsPercent=0, Tmax=6000, UnlimitedTmax=313.73744
limitTemperature=limitT, Type=Lower, LimitedCells=0, CellsPercent=0, Tmin=250, UnlimitedTmin=304.04459
limitTemperature=limitT, Type=Upper, LimitedCells=0, CellsPercent=0, Tmax=6000, UnlimitedTmax=305.1046
limitTemperature=limitT, Type=Lower, LimitedCells=0, CellsPercent=0, Tmin=250, UnlimitedTmin=303.51542
limitTemperature=limitT, Type=Upper, LimitedCells=0, CellsPercent=0, Tmax=6000, UnlimitedTmax=305.28621
limitTemperature=limitT, Type=Lower, LimitedCells=0, CellsPercent=0, Tmin=250, UnlimitedTmin=304.17362
limitTemperature=limitT, Type=Upper, LimitedCells=0, CellsPercent=0, Tmax=6000, UnlimitedTmax=306.07147
DICPBiCGStab:  Solving for p_rgh, Initial residual = 0.48808846, Final residual = 0.046591455, No Iterations 19
time step continuity errors : sum local = 0.014974958, global = -0.0091476305, cumulative = -0.014989835
Min/max rho:1.1098678 1.1766627
DILUPBiCGStab:  Solving for epsilon, Initial residual = 0.068635353, Final residual = 0.0012168459, No Iterations 1
bounding epsilon, min: -0.17629068 max: 10 average: 0.016785934
DILUPBiCGStab:  Solving for k, Initial residual = 0.0082641891, Final residual = 0.00029902034, No Iterations 1
ExecutionTime = 2.08 s  ClockTime = 2 s

volFieldValue fluid write:
    volAverage(fluid) of T = 300.02128

volFieldValue pcb write:
    volAverage(pcb) of T = 300.4538

volFieldValue component_0 write:
    volAverage(component_0) of T = 319.4265

volFieldValue component_1 write:
    volAverage(component_1) of T = 313.55723

volFieldValue component_2 write:
    volAverage(component_2) of T = 304.89668

volFieldValue component_3 write:
    volAverage(component_3) of T = 304.85195

volFieldValue component_4 write:
    volAverage(component_4) of T = 305.64855

Time = 22


Solving for fluid region fluid
DILUPBiCGStab:  Solving for Ux, Initial residual = 0.04683354, Final residual = 0.0012076114, No Iterations 2
DILUPBiCGStab:  Solving for Uy, Initial residual = 0.084358353, Final residual = 0.0040482429, No Iterations 1

Solving energy coupled regions
Using lduPrimitiveAssembly: lduAssembly456789
DILUPBiCGStab:  Solving for h, Initial residual = 0.0090171556, Final residual = 0.00013086432, No Iterations 1
limitTemperature=limitT, Type=Lower, LimitedCells=0, CellsPercent=0, Tmin=250, UnlimitedTmin=299.99985
limitTemperature=limitT, Type=Upper, LimitedCells=0, CellsPercent=0, Tmax=6000, UnlimitedTmax=301.6565
limitTemperature=limitT, Type=Lower, LimitedCells=0, CellsPercent=0, Tmin=250, UnlimitedTmin=299.99993
limitTemperature=limitT, Type=Upper, LimitedCells=0, CellsPercent=0, Tmax=6000, UnlimitedTmax=307.04417
limitTemperature=limitT, Type=Lower, LimitedCells=0, CellsPercent=0, Tmin=250, UnlimitedTmin=317.36563
limitTemperature=limitT, Type=Upper, LimitedCells=0, CellsPercent=0, Tmax=6000, UnlimitedTmax=320.58708
limitTemperature=limitT, Type=Lower, LimitedCells=0, CellsPercent=0, Tmin=250, UnlimitedTmin=312.45292
limitTemperature=limitT, Type=Upper, LimitedCells=0, CellsPercent=0, Tmax=6000, UnlimitedTmax=314.34334
limitTemperature=limitT, Type=Lower, LimitedCells=0, CellsPercent=0, Tmin=250, UnlimitedTmin=304.22861
limitTemperature=limitT, Type=Upper, LimitedCells=0, CellsPercent=0, Tmax=6000, UnlimitedTmax=305.34396
limitTemperature=limitT, Type=Lower, LimitedCells=0, CellsPercent=0, Tmin=250, UnlimitedTmin=303.61303
limitTemperature=limitT, Type=Upper, LimitedCells=0, CellsPercent=0, Tmax=6000, UnlimitedTmax=305.52822
limitTemperature=limitT, Type=Lower, LimitedCells=0, CellsPercent=0, Tmin=250, UnlimitedTmin=304.3384
limitTemperature=limitT, Type=Upper, LimitedCells=0, CellsPercent=0, Tmax=6000, UnlimitedTmax=306.34925
DICPBiCGStab:  Solving for p_rgh, Initial residual = 0.47265864, Final residual = 0.046843882, No Iterations 50
time step continuity errors : sum local = 0.014601808, global = -0.012965889, cumulative = -0.027955724
Min/max rho:1.1069658 1.1766641
DILUPBiCGStab:  Solving for epsilon, Initial residual = 0.11565477, Final residual = 0.0017410275, No Iterations 1
bounding epsilon, min: -0.14456107 max: 10 average: 0.017795391
DILUPBiCGStab:  Solving for k, Initial residual = 0.013593966, Final residual = 0.00037030681, No Iterations 1
ExecutionTime = 2.18 s  ClockTime = 2 s

volFieldValue fluid write:
    volAverage(fluid) of T = 300.02332

volFieldValue pcb write:
    volAverage(pcb) of T = 300.49074

volFieldValue component_0 write:
    volAverage(component_0) of T = 320.26537

volFieldValue component_1 write:
    volAverage(component_1) of T = 314.12427

volFieldValue component_2 write:
    volAverage(component_2) of T = 305.11754

volFieldValue component_3 write:
    volAverage(component_3) of T = 305.05633

volFieldValue component_4 write:
    volAverage(component_4) of T = 305.87627

Time = 23


Solving for fluid region fluid
DILUPBiCGStab:  Solving for Ux, Initial residual = 0.047803997, Final residual = 0.00079980487, No Iterations 2
DILUPBiCGStab:  Solving for Uy, Initial residual = 0.090723454, Final residual = 0.0012325997, No Iterations 2

Solving energy coupled regions
Using lduPrimitiveAssembly: lduAssembly456789
DILUPBiCGStab:  Solving for h, Initial residual = 0.009095542, Final residual = 0.00014391409, No Iterations 1
limitTemperature=limitT, Type=Lower, LimitedCells=0, CellsPercent=0, Tmin=250, UnlimitedTmin=299.99986
limitTemperature=limitT, Type=Upper, LimitedCells=0, CellsPercent=0, Tmax=6000, UnlimitedTmax=302.43288
limitTemperature=limitT, Type=Lower, LimitedCells=0, CellsPercent=0, Tmin=250, UnlimitedTmin=299.99999
limitTemperature=limitT, Type=Upper, LimitedCells=0, CellsPercent=0, Tmax=6000, UnlimitedTmax=307.55259
limitTemperature=limitT, Type=Lower, LimitedCells=0, CellsPercent=0, Tmin=250, UnlimitedTmin=318.02997
limitTemperature=limitT, Type=Upper, LimitedCells=0, CellsPercent=0, Tmax=6000, UnlimitedTmax=321.46868
limitTemperature=limitT, Type=Lower, LimitedCells=0, CellsPercent=0, Tmin=250, UnlimitedTmin=312.93811
limitTemperature=limitT, Type=Upper, LimitedCells=0, CellsPercent=0, Tmax=6000, UnlimitedTmax=314.94757
limitTemperature=limitT, Type=Lower, LimitedCells=0, CellsPercent=0, Tmin=250, UnlimitedTmin=304.42719
limitTemperature=limitT, Type=Upper, LimitedCells=0, CellsPercent=0, Tmax=6000, UnlimitedTmax=305.58225
limitTemperature=limitT, Type=Lower, LimitedCells=0, CellsPercent=0, Tmin=250, UnlimitedTmin=303.73608
limitTemperature=limitT, Type=Upper, LimitedCells=0, CellsPercent=0, Tmax=6000, UnlimitedTmax=305.76869
limitTemperature=limitT, Type=Lower, LimitedCells=0, CellsPercent=0, Tmin=250, UnlimitedTmin=304.50126
limitTemperature=limitT, Type=Upper, LimitedCells=0, CellsPercent=0, Tmax=6000, UnlimitedTmax=306.62438
DICPBiCGStab:  Solving for p_rgh, Initial residual = 0.31414865, Final residual = 0.031071227, No Iterations 22
time step continuity errors : sum local = 0.012098837, global = -0.0078058865, cumulative = -0.03576161
Min/max rho:1.1041549 1.1766651
DILUPBiCGStab:  Solving for epsilon, Initial residual = 0.040321004, Final residual = 0.0011038763, No Iterations 1
bounding epsilon, min: -0.20667219 max: 10 average: 0.016584167
DILUPBiCGStab:  Solving for k, Initial residual = 0.0086324196, Final residual = 0.00028263778, No Iterations 1
ExecutionTime = 2.24 s  ClockTime = 2 s

volFieldValue fluid write:
    volAverage(fluid) of T = 300.02487

volFieldValue pcb write:
    volAverage(pcb) of T = 300.52815

volFieldValue component_0 write:
    volAverage(component_0) of T = 321.08961

volFieldValue component_1 write:
    volAverage(component_1) of T = 314.68312

volFieldValue component_2 write:
    volAverage(component_2) of T = 305.33639

volFieldValue component_3 write:
    volAverage(component_3) of T = 305.25836

volFieldValue component_4 write:
    volAverage(component_4) of T = 306.09988

Time = 24


Solving for fluid region fluid
DILUPBiCGStab:  Solving for Ux, Initial residual = 0.055506095, Final residual = 0.00097180644, No Iterations 2
DILUPBiCGStab:  Solving for Uy, Initial residual = 0.073245725, Final residual = 0.00096648464, No Iterations 2

Solving energy coupled regions
Using lduPrimitiveAssembly: lduAssembly456789
DILUPBiCGStab:  Solving for h, Initial residual = 0.0087458204, Final residual = 0.00013375916, No Iterations 1
limitTemperature=limitT, Type=Lower, LimitedCells=0, CellsPercent=0, Tmin=250, UnlimitedTmin=299.99986
limitTemperature=limitT, Type=Upper, LimitedCells=0, CellsPercent=0, Tmax=6000, UnlimitedTmax=302.84222
limitTemperature=limitT, Type=Lower, LimitedCells=0, CellsPercent=0, Tmin=250, UnlimitedTmin=300.00002
limitTemperature=limitT, Type=Upper, LimitedCells=0, CellsPercent=0, Tmax=6000, UnlimitedTmax=308.06956
limitTemperature=limitT, Type=Lower, LimitedCells=0, CellsPercent=0, Tmin=250, UnlimitedTmin=318.69263
limitTemperature=limitT, Type=Upper, LimitedCells=0, CellsPercent=0, Tmax=6000, UnlimitedTmax=322.34172
limitTemperature=limitT, Type=Lower, LimitedCells=0, CellsPercent=0, Tmin=250, UnlimitedTmin=313.41808
limitTemperature=limitT, Type=Upper, LimitedCells=0, CellsPercent=0, Tmax=6000, UnlimitedTmax=315.54722
limitTemperature=limitT, Type=Lower, LimitedCells=0, CellsPercent=0, Tmin=250, UnlimitedTmin=304.63924
limitTemperature=limitT, Type=Upper, LimitedCells=0, CellsPercent=0, Tmax=6000, UnlimitedTmax=305.81969
limitTemperature=limitT, Type=Lower, LimitedCells=0, CellsPercent=0, Tmin=250, UnlimitedTmin=303.92175
limitTemperature=limitT, Type=Upper, LimitedCells=0, CellsPercent=0, Tmax=6000, UnlimitedTmax=306.00803
limitTemperature=limitT, Type=Lower, LimitedCells=0, CellsPercent=0, Tmin=250, UnlimitedTmin=304.56607
limitTemperature=limitT, Type=Upper, LimitedCells=0, CellsPercent=0, Tmax=6000, UnlimitedTmax=306.89705
DICPBiCGStab:  Solving for p_rgh, Initial residual = 0.27757964, Final residual = 0.027551644, No Iterations 38
time step continuity errors : sum local = 0.0097203643, global = -0.00724819, cumulative = -0.0430098
Min/max rho:1.1014372 1.1766682
DILUPBiCGStab:  Solving for epsilon, Initial residual = 0.062828451, Final residual = 0.0012111901, No Iterations 1
bounding epsilon, min: -0.14718357 max: 10 average: 0.017464436
DILUPBiCGStab:  Solving for k, Initial residual = 0.0091732654, Final residual = 0.00025139031, No Iterations 1
ExecutionTime = 2.31 s  ClockTime = 2 s

volFieldValue fluid write:
[...]
DILUPBiCGStab:  Solving for k, Initial residual = 3.3886949e-05, Final residual = 1.1899413e-06, No Iterations 1
bounding k, min: -69.217665 max: 929440.29 average: 1515.7678
ExecutionTime = 11 s  ClockTime = 11 s

volFieldValue fluid write:
    volAverage(fluid) of T = 591.6532

volFieldValue pcb write:
    volAverage(pcb) of T = 283.14848

volFieldValue component_0 write:
    volAverage(component_0) of T = 250

volFieldValue component_1 write:
    volAverage(component_1) of T = 250

volFieldValue component_2 write:
    volAverage(component_2) of T = 280.27662

volFieldValue component_3 write:
    volAverage(component_3) of T = 250

volFieldValue component_4 write:
    volAverage(component_4) of T = 347.16875

Time = 151


Solving for fluid region fluid
DILUPBiCGStab:  Solving for Ux, Initial residual = 0.5965984, Final residual = 0.025007759, No Iterations 1
DILUPBiCGStab:  Solving for Uy, Initial residual = 0.56151154, Final residual = 0.0084511519, No Iterations 2

Solving energy coupled regions
Using lduPrimitiveAssembly: lduAssembly456789
DILUPBiCGStab:  Solving for h, Initial residual = 1, Final residual = 0.00061874059, No Iterations 12
limitTemperature=limitT, Type=Lower, LimitedCells=2807, CellsPercent=29.97, Tmin=250, UnlimitedTmin=250
limitTemperature=limitT, Type=Upper, LimitedCells=2779, CellsPercent=29.67, Tmax=6000, UnlimitedTmax=6000
limitTemperature=limitT, Type=Lower, LimitedCells=15, CellsPercent=2.39, Tmin=250, UnlimitedTmin=250
limitTemperature=limitT, Type=Upper, LimitedCells=348, CellsPercent=55.41, Tmax=6000, UnlimitedTmax=6000
limitTemperature=limitT, Type=Lower, LimitedCells=0, CellsPercent=0, Tmin=250, UnlimitedTmin=250
limitTemperature=limitT, Type=Upper, LimitedCells=55, CellsPercent=100, Tmax=6000, UnlimitedTmax=250
limitTemperature=limitT, Type=Lower, LimitedCells=0, CellsPercent=0, Tmin=250, UnlimitedTmin=250
limitTemperature=limitT, Type=Upper, LimitedCells=66, CellsPercent=100, Tmax=6000, UnlimitedTmax=250
limitTemperature=limitT, Type=Lower, LimitedCells=0, CellsPercent=0, Tmin=250, UnlimitedTmin=250
limitTemperature=limitT, Type=Upper, LimitedCells=177, CellsPercent=100, Tmax=6000, UnlimitedTmax=1248.1267
limitTemperature=limitT, Type=Lower, LimitedCells=0, CellsPercent=0, Tmin=250, UnlimitedTmin=250
limitTemperature=limitT, Type=Upper, LimitedCells=136, CellsPercent=100, Tmax=6000, UnlimitedTmax=250
limitTemperature=limitT, Type=Lower, LimitedCells=0, CellsPercent=0, Tmin=250, UnlimitedTmin=250
limitTemperature=limitT, Type=Upper, LimitedCells=73, CellsPercent=47.71, Tmax=6000, UnlimitedTmax=484.58839
DICPBiCGStab:  Solving for p_rgh, Initial residual = 0.97338371, Final residual = 0.085567684, No Iterations 3
time step continuity errors : sum local = 9232804.7, global = -175.53082, cumulative = -108.8386
Min/max rho:0.020485946 58831.576
DILUPBiCGStab:  Solving for epsilon, Initial residual = 0.14366343, Final residual = 0.0040537171, No Iterations 1
bounding epsilon, min: -36577471 max: 2.1453234e+09 average: 1060127.1
DILUPBiCGStab:  Solving for k, Initial residual = 2.448213e-05, Final residual = 2.9363772e-07, No Iterations 2
bounding k, min: -33764.249 max: 1.1458976e+08 average: 75511.492
ExecutionTime = 11.08 s  ClockTime = 11 s

volFieldValue fluid write:
    volAverage(fluid) of T = 1946.0947

volFieldValue pcb write:
    volAverage(pcb) of T = 3764.7449

volFieldValue component_0 write:
    volAverage(component_0) of T = 6000

volFieldValue component_1 write:
    volAverage(component_1) of T = 6000

volFieldValue component_2 write:
    volAverage(component_2) of T = 6000

volFieldValue component_3 write:
    volAverage(component_3) of T = 6000

volFieldValue component_4 write:
    volAverage(component_4) of T = 3362.584

Time = 152


Solving for fluid region fluid
DILUPBiCGStab:  Solving for Ux, Initial residual = 0.31459752, Final residual = 0.00071322376, No Iterations 8
DILUPBiCGStab:  Solving for Uy, Initial residual = 0.35856821, Final residual = 0.010086805, No Iterations 7

Solving energy coupled regions
Using lduPrimitiveAssembly: lduAssembly456789
DILUPBiCGStab:  Solving for h, Initial residual = 1, Final residual = 0.039033211, No Iterations 15
limitTemperature=limitT, Type=Lower, LimitedCells=6793, CellsPercent=72.52, Tmin=250, UnlimitedTmin=250
limitTemperature=limitT, Type=Upper, LimitedCells=680, CellsPercent=7.26, Tmax=6000, UnlimitedTmax=6000
limitTemperature=limitT, Type=Lower, LimitedCells=612, CellsPercent=97.45, Tmin=250, UnlimitedTmin=250
limitTemperature=limitT, Type=Upper, LimitedCells=0, CellsPercent=0, Tmax=6000, UnlimitedTmax=6000
limitTemperature=limitT, Type=Lower, LimitedCells=55, CellsPercent=100, Tmin=250, UnlimitedTmin=6000
limitTemperature=limitT, Type=Upper, LimitedCells=0, CellsPercent=0, Tmax=6000, UnlimitedTmax=6000
limitTemperature=limitT, Type=Lower, LimitedCells=66, CellsPercent=100, Tmin=250, UnlimitedTmin=6000
limitTemperature=limitT, Type=Upper, LimitedCells=0, CellsPercent=0, Tmax=6000, UnlimitedTmax=6000
limitTemperature=limitT, Type=Lower, LimitedCells=177, CellsPercent=100, Tmin=250, UnlimitedTmin=6000
limitTemperature=limitT, Type=Upper, LimitedCells=0, CellsPercent=0, Tmax=6000, UnlimitedTmax=6000
limitTemperature=limitT, Type=Lower, LimitedCells=136, CellsPercent=100, Tmin=250, UnlimitedTmin=6000
limitTemperature=limitT, Type=Upper, LimitedCells=0, CellsPercent=0, Tmax=6000, UnlimitedTmax=6000
limitTemperature=limitT, Type=Lower, LimitedCells=153, CellsPercent=100, Tmin=250, UnlimitedTmin=276.71928
limitTemperature=limitT, Type=Upper, LimitedCells=0, CellsPercent=0, Tmax=6000, UnlimitedTmax=6000
DICPBiCGStab:  Solving for p_rgh, Initial residual = 0.87552784, Final residual = 0.082726548, No Iterations 7
time step continuity errors : sum local = 1.2693297e+12, global = -17789.623, cumulative = -17898.461
Min/max rho:0.02161625 2.6562072e+10
DILUPBiCGStab:  Solving for epsilon, Initial residual = 0.99301185, Final residual = 0.015531618, No Iterations 1
bounding epsilon, min: -578790.97 max: 2.6911119e+15 average: 6.8017639e+11
DILUPBiCGStab:  Solving for k, Initial residual = 0.99999697, Final residual = 0.017858431, No Iterations 1
bounding k, min: -3991.6858 max: 7.5542058e+15 average: 1.2882957e+13
ExecutionTime = 11.17 s  ClockTime = 11 s

volFieldValue fluid write:
    volAverage(fluid) of T = 757.19697

volFieldValue pcb write:
    volAverage(pcb) of T = 251.33354

volFieldValue component_0 write:
    volAverage(component_0) of T = 250

volFieldValue component_1 write:
    volAverage(component_1) of T = 250

volFieldValue component_2 write:
    volAverage(component_2) of T = 250

volFieldValue component_3 write:
    volAverage(component_3) of T = 250

volFieldValue component_4 write:
    volAverage(component_4) of T = 250

Time = 153


Solving for fluid region fluid
DILUPBiCGStab:  Solving for Ux, Initial residual = 0.57850361, Final residual = 0.022797501, No Iterations 1
DILUPBiCGStab:  Solving for Uy, Initial residual = 0.52309777, Final residual = 0.008783695, No Iterations 2

Solving energy coupled regions
Using lduPrimitiveAssembly: lduAssembly456789
DILUPBiCGStab:  Solving for h, Initial residual = 1, Final residual = 0.018061639, No Iterations 2
limitTemperature=limitT, Type=Lower, LimitedCells=3825, CellsPercent=40.83, Tmin=250, UnlimitedTmin=250
limitTemperature=limitT, Type=Upper, LimitedCells=2591, CellsPercent=27.66, Tmax=6000, UnlimitedTmax=6000
limitTemperature=limitT, Type=Lower, LimitedCells=308, CellsPercent=49.04, Tmin=250, UnlimitedTmin=250
limitTemperature=limitT, Type=Upper, LimitedCells=276, CellsPercent=43.95, Tmax=6000, UnlimitedTmax=571.5006
limitTemperature=limitT, Type=Lower, LimitedCells=6, CellsPercent=10.91, Tmin=250, UnlimitedTmin=250
limitTemperature=limitT, Type=Upper, LimitedCells=49, CellsPercent=89.09, Tmax=6000, UnlimitedTmax=250
limitTemperature=limitT, Type=Lower, LimitedCells=33, CellsPercent=50, Tmin=250, UnlimitedTmin=250
limitTemperature=limitT, Type=Upper, LimitedCells=33, CellsPercent=50, Tmax=6000, UnlimitedTmax=250
limitTemperature=limitT, Type=Lower, LimitedCells=26, CellsPercent=14.69, Tmin=250, UnlimitedTmin=250
limitTemperature=limitT, Type=Upper, LimitedCells=151, CellsPercent=85.31, Tmax=6000, UnlimitedTmax=250
limitTemperature=limitT, Type=Lower, LimitedCells=17, CellsPercent=12.5, Tmin=250, UnlimitedTmin=250
limitTemperature=limitT, Type=Upper, LimitedCells=119, CellsPercent=87.5, Tmax=6000, UnlimitedTmax=250
limitTemperature=limitT, Type=Lower, LimitedCells=127, CellsPercent=83.01, Tmin=250, UnlimitedTmin=250
limitTemperature=limitT, Type=Upper, LimitedCells=24, CellsPercent=15.69, Tmax=6000, UnlimitedTmax=250
DICPBiCGStab:  Solving for p_rgh, Initial residual = 0.9999141, Final residual = 0.086850023, No Iterations 2
time step continuity errors : sum local = 8.4898276e+17, global = -63639.643, cumulative = -81538.104
Min/max rho:0.055545218 5e+14
DILUPBiCGStab:  Solving for epsilon, Initial residual = 0.02764646, Final residual = 0.0010054779, No Iterations 1
bounding epsilon, min: -8.3898883e+22 max: 5.255039e+23 average: 4.8568764e+19
DILUPBiCGStab:  Solving for k, Initial residual = 0.99974954, Final residual = 0.026291851, No Iterations 2
bounding k, min: -13686933 max: 3.6127395e+23 average: 2.6725012e+20
ExecutionTime = 11.19 s  ClockTime = 11 s

volFieldValue fluid write:
    volAverage(fluid) of T = 1994.4781

volFieldValue pcb write:
    volAverage(pcb) of T = 2856.6406

volFieldValue component_0 write:
    volAverage(component_0) of T = 5457.1714

volFieldValue component_1 write:
    volAverage(component_1) of T = 3209.3043

volFieldValue component_2 write:
    volAverage(component_2) of T = 5199.8042

volFieldValue component_3 write:
    volAverage(component_3) of T = 5294.7774

volFieldValue component_4 write:
    volAverage(component_4) of T = 1120.7112

Time = 154


Solving for fluid region fluid
DILUPBiCGStab:  Solving for Ux, Initial residual = 0.32563339, Final residual = 0.0022383484, No Iterations 1
DILUPBiCGStab:  Solving for Uy, Initial residual = 0.24118977, Final residual = 0.0025843236, No Iterations 1

Solving energy coupled regions
Using lduPrimitiveAssembly: lduAssembly456789
DILUPBiCGStab:  Solving for h, Initial residual = 1, Final residual = 0.013401942, No Iterations 2
limitTemperature=limitT, Type=Lower, LimitedCells=3030, CellsPercent=32.35, Tmin=250, UnlimitedTmin=250
limitTemperature=limitT, Type=Upper, LimitedCells=3643, CellsPercent=38.89, Tmax=6000, UnlimitedTmax=6000
limitTemperature=limitT, Type=Lower, LimitedCells=185, CellsPercent=29.46, Tmin=250, UnlimitedTmin=250
limitTemperature=limitT, Type=Upper, LimitedCells=379, CellsPercent=60.35, Tmax=6000, UnlimitedTmax=6000
limitTemperature=limitT, Type=Lower, LimitedCells=29, CellsPercent=52.73, Tmin=250, UnlimitedTmin=250
limitTemperature=limitT, Type=Upper, LimitedCells=26, CellsPercent=47.27, Tmax=6000, UnlimitedTmax=6000
limitTemperature=limitT, Type=Lower, LimitedCells=28, CellsPercent=42.42, Tmin=250, UnlimitedTmin=250
limitTemperature=limitT, Type=Upper, LimitedCells=38, CellsPercent=57.58, Tmax=6000, UnlimitedTmax=6000
limitTemperature=limitT, Type=Lower, LimitedCells=15, CellsPercent=8.47, Tmin=250, UnlimitedTmin=250
limitTemperature=limitT, Type=Upper, LimitedCells=162, CellsPercent=91.53, Tmax=6000, UnlimitedTmax=6000
limitTemperature=limitT, Type=Lower, LimitedCells=1, CellsPercent=0.74, Tmin=250, UnlimitedTmin=250
limitTemperature=limitT, Type=Upper, LimitedCells=135, CellsPercent=99.26, Tmax=6000, UnlimitedTmax=6000
limitTemperature=limitT, Type=Lower, LimitedCells=53, CellsPercent=34.64, Tmin=250, UnlimitedTmin=250
limitTemperature=limitT, Type=Upper, LimitedCells=80, CellsPercent=52.29, Tmax=6000, UnlimitedTmax=6000
DICPBiCGStab:  Solving for p_rgh, Initial residual = 0.97837965, Final residual = 0.089810045, No Iterations 6
time step continuity errors : sum local = 1.461716e+25, global = -2968160, cumulative = -3049698.1
Min/max rho:0.027772609 7.5e+14
DILUPBiCGStab:  Solving for epsilon, Initial residual = 0.032236166, Final residual = 0.0013084214, No Iterations 1
bounding epsilon, min: -1.3261945e+30 max: 8.3036326e+31 average: 2.4181496e+28
DILUPBiCGStab:  Solving for k, Initial residual = 0.00019853424, Final residual = 9.00965e-06, No Iterations 1
bounding k, min: -2.8165302e+22 max: 2.287141e+29 average: 8.3317811e+25
ExecutionTime = 11.28 s  ClockTime = 11 s

volFieldValue fluid write:
    volAverage(fluid) of T = 2551.5602

volFieldValue pcb write:
    volAverage(pcb) of T = 3760.11

volFieldValue component_0 write:
    volAverage(component_0) of T = 2663.2606

volFieldValue component_1 write:
    volAverage(component_1) of T = 3589.5614

volFieldValue component_2 write:
    volAverage(component_2) of T = 5509.4826

volFieldValue component_3 write:
    volAverage(component_3) of T = 5961.1062

volFieldValue component_4 write:
    volAverage(component_4) of T = 3472.9331

Time = 155


Solving for fluid region fluid
DILUPBiCGStab:  Solving for Ux, Initial residual = 0.035778245, Final residual = 0.00050504375, No Iterations 1
DILUPBiCGStab:  Solving for Uy, Initial residual = 0.047326048, Final residual = 0.00062863433, No Iterations 1

Solving energy coupled regions
Using lduPrimitiveAssembly: lduAssembly456789
DILUPBiCGStab:  Solving for h, Initial residual = 1, Final residual = 0.0029447378, No Iterations 13
limitTemperature=limitT, Type=Lower, LimitedCells=3141, CellsPercent=33.53, Tmin=250, UnlimitedTmin=250
limitTemperature=limitT, Type=Upper, LimitedCells=5404, CellsPercent=57.69, Tmax=6000, UnlimitedTmax=6000
limitTemperature=limitT, Type=Lower, LimitedCells=193, CellsPercent=30.73, Tmin=250, UnlimitedTmin=250
limitTemperature=limitT, Type=Upper, LimitedCells=435, CellsPercent=69.27, Tmax=6000, UnlimitedTmax=6000
limitTemperature=limitT, Type=Lower, LimitedCells=18, CellsPercent=32.73, Tmin=250, UnlimitedTmin=250
limitTemperature=limitT, Type=Upper, LimitedCells=37, CellsPercent=67.27, Tmax=6000, UnlimitedTmax=6000
limitTemperature=limitT, Type=Lower, LimitedCells=66, CellsPercent=100, Tmin=250, UnlimitedTmin=250
limitTemperature=limitT, Type=Upper, LimitedCells=0, CellsPercent=0, Tmax=6000, UnlimitedTmax=6000
limitTemperature=limitT, Type=Lower, LimitedCells=93, CellsPercent=52.54, Tmin=250, UnlimitedTmin=250
limitTemperature=limitT, Type=Upper, LimitedCells=84, CellsPercent=47.46, Tmax=6000, UnlimitedTmax=6000
limitTemperature=limitT, Type=Lower, LimitedCells=31, CellsPercent=22.79, Tmin=250, UnlimitedTmin=250
limitTemperature=limitT, Type=Upper, LimitedCells=105, CellsPercent=77.21, Tmax=6000, UnlimitedTmax=6000
limitTemperature=limitT, Type=Lower, LimitedCells=0, CellsPercent=0, Tmin=250, UnlimitedTmin=250
limitTemperature=limitT, Type=Upper, LimitedCells=153, CellsPercent=100, Tmax=6000, UnlimitedTmax=6000
DICPBiCGStab:  Solving for p_rgh, Initial residual = 0.99217832, Final residual = 0.092576242, No Iterations 86
time step continuity errors : sum local = 5.1862096e+26, global = -4.304048e+22, cumulative = -4.304048e+22
Min/max rho:0.013886304 8.75e+14
DILUPBiCGStab:  Solving for epsilon, Initial residual = 7.5517123e-06, Final residual = 6.6199056e-07, No Iterations 1
bounding epsilon, min: -1.3477826e+38 max: 4.1147502e+39 average: 6.9207667e+35
DILUPBiCGStab:  Solving for k, Initial residual = 1.0327546e-09, Final residual = 1.0327546e-09, No Iterations 0
ExecutionTime = 11.4 s  ClockTime = 11 s

volFieldValue fluid write:
    volAverage(fluid) of T = 3489.022

volFieldValue pcb write:
    volAverage(pcb) of T = 4202.2611

volFieldValue component_0 write:
    volAverage(component_0) of T = 4274.0012

volFieldValue component_1 write:
    volAverage(component_1) of T = 250

volFieldValue component_2 write:
    volAverage(component_2) of T = 2977.2639

volFieldValue component_3 write:
    volAverage(component_3) of T = 4658.4584

volFieldValue component_4 write:
    volAverage(component_4) of T = 6000

Time = 156


Solving for fluid region fluid
DILUPBiCGStab:  Solving for Ux, Initial residual = 0.073196189, Final residual = 0.0005658487, No Iterations 12
DILUPBiCGStab:  Solving for Uy, Initial residual = 0.020412486, Final residual = 0.00078457072, No Iterations 13

Solving energy coupled regions
Using lduPrimitiveAssembly: lduAssembly456789
DILUPBiCGStab:  Solving for h, Initial residual = 1, Final residual = 0.045165567, No Iterations 28
limitTemperature=limitT, Type=Lower, LimitedCells=4767, CellsPercent=50.89, Tmin=250, UnlimitedTmin=250
limitTemperature=limitT, Type=Upper, LimitedCells=4600, CellsPercent=49.11, Tmax=6000, UnlimitedTmax=6000
limitTemperature=limitT, Type=Lower, LimitedCells=586, CellsPercent=93.31, Tmin=250, UnlimitedTmin=250
limitTemperature=limitT, Type=Upper, LimitedCells=42, CellsPercent=6.69, Tmax=6000, UnlimitedTmax=6000
limitTemperature=limitT, Type=Lower, LimitedCells=54, CellsPercent=98.18, Tmin=250, UnlimitedTmin=250
limitTemperature=limitT, Type=Upper, LimitedCells=1, CellsPercent=1.82, Tmax=6000, UnlimitedTmax=6000
limitTemperature=limitT, Type=Lower, LimitedCells=66, CellsPercent=100, Tmin=250, UnlimitedTmin=250
limitTemperature=limitT, Type=Upper, LimitedCells=0, CellsPercent=0, Tmax=6000, UnlimitedTmax=250
limitTemperature=limitT, Type=Lower, LimitedCells=177, CellsPercent=100, Tmin=250, UnlimitedTmin=250
limitTemperature=limitT, Type=Upper, LimitedCells=0, CellsPercent=0, Tmax=6000, UnlimitedTmax=6000
limitTemperature=limitT, Type=Lower, LimitedCells=136, CellsPercent=100, Tmin=250, UnlimitedTmin=250
limitTemperature=limitT, Type=Upper, LimitedCells=0, CellsPercent=0, Tmax=6000, UnlimitedTmax=6000
limitTemperature=limitT, Type=Lower, LimitedCells=153, CellsPercent=100, Tmin=250, UnlimitedTmin=6000
limitTemperature=limitT, Type=Upper, LimitedCells=0, CellsPercent=0, Tmax=6000, UnlimitedTmax=6000
[stack trace]
=============
#1  Foam::sigFpe::sigHandler(int) in /usr/lib/openfoam/openfoam2506/platforms/linux64GccDPInt32Opt/lib/libOpenFOAM.so
#2  ? in /lib/x86_64-linux-gnu/libc.so.6
#3  Foam::DICPreconditioner::calcReciprocalD(Foam::Field<double>&, Foam::lduMatrix const&) in /usr/lib/openfoam/openfoam2506/platforms/linux64GccDPInt32Opt/lib/libOpenFOAM.so
#4  Foam::DICPreconditioner::DICPreconditioner(Foam::lduMatrix::solver const&, Foam::dictionary const&) in /usr/lib/openfoam/openfoam2506/platforms/linux64GccDPInt32Opt/lib/libOpenFOAM.so
#5  Foam::lduMatrix::preconditioner::addsymMatrixConstructorToTable<Foam::DICPreconditioner>::New(Foam::lduMatrix::solver const&, Foam::dictionary const&) in /usr/lib/openfoam/openfoam2506/platforms/linux64GccDPInt32Opt/lib/libOpenFOAM.so
#6  Foam::lduMatrix::preconditioner::New(Foam::lduMatrix::solver const&, Foam::dictionary const&) in /usr/lib/openfoam/openfoam2506/platforms/linux64GccDPInt32Opt/lib/libOpenFOAM.so
#7  Foam::PBiCGStab::scalarSolve(Foam::Field<double>&, Foam::Field<double> const&, unsigned char) const in /usr/lib/openfoam/openfoam2506/platforms/linux64GccDPInt32Opt/lib/libOpenFOAM.so
#8  Foam::PBiCGStab::solve(Foam::Field<double>&, Foam::Field<double> const&, unsigned char) const in /usr/lib/openfoam/openfoam2506/platforms/linux64GccDPInt32Opt/lib/libOpenFOAM.so
#9  Foam::fvMatrix<double>::solveSegregated(Foam::dictionary const&) in /usr/lib/openfoam/openfoam2506/platforms/linux64GccDPInt32Opt/lib/libfiniteVolume.so
#10  ? in /usr/lib/openfoam/openfoam2506/platforms/linux64GccDPInt32Opt/lib/libfiniteVolume.so
#11  Foam::fvMesh::solve(Foam::fvMatrix<double>&, Foam::dictionary const&) const in /usr/lib/openfoam/openfoam2506/platforms/linux64GccDPInt32Opt/lib/libfiniteVolume.so
#12  ? in /usr/lib/openfoam/openfoam2506/platforms/linux64GccDPInt32Opt/bin/chtMultiRegionSimpleFoam
#13  ? in /usr/lib/openfoam/openfoam2506/platforms/linux64GccDPInt32Opt/bin/chtMultiRegionSimpleFoam
#14  ? in /lib/x86_64-linux-gnu/libc.so.6
#15  __libc_start_main in /lib/x86_64-linux-gnu/libc.so.6
#16  ? in /usr/lib/openfoam/openfoam2506/platforms/linux64GccDPInt32Opt/bin/chtMultiRegionSimpleFoam
=============
Floating point exception (core dumped)
