/*---------------------------------------------------------------------------*\
| =========                 |                                                 |
| \\      /  F ield         | OpenFOAM: The Open Source CFD Toolbox           |
|  \\    /   O peration     | Version:  2506                                  |
|   \\  /    A nd           | Website:  www.openfoam.com                      |
|    \\/     M anipulation  |                                                 |
\*---------------------------------------------------------------------------*/
Build  : _615aae61-20250627 OPENFOAM=2506 version=2506
Arch   : "LSB;label=32;scalar=64"
Exec   : chtMultiRegionSimpleFoam
Date   : Sep 25 2025
Time   : 00:59:49
Host   : instance-20250906-0051
PID    : 245209
I/O    : uncollated
Case   : /home/ubuntu/ThermalUNet/data_generation/simulation_results/of/case_54
nProcs : 1
trapFpe: Floating point exception trapping enabled (FOAM_SIGFPE).
fileModificationChecking : Monitoring run-time modified files using timeStampMaster (fileModificationSkew 5, maxFileModificationPolls 20)
allowSystemOperations : Allowing user-supplied system call operations

// * * * * * * * * * * * * * * * * * * * * * * * * * * * * * * * * * * * * * //
Create time

Create fluid mesh for region fluid for time = 0

Create solid mesh for region pcb for time = 0

Create solid mesh for region component_0 for time = 0

Create solid mesh for region component_1 for time = 0

Create solid mesh for region component_2 for time = 0

Create solid mesh for region component_3 for time = 0

Create solid mesh for region component_4 for time = 0

*** Reading fluid mesh thermophysical properties for region fluid

    Adding to thermoFluid

Selecting thermodynamics package 
{
    type            heRhoThermo;
    mixture         pureMixture;
    transport       const;
    thermo          hConst;
    equationOfState perfectGas;
    specie          specie;
    energy          sensibleEnthalpy;
}

    Adding to rhoFluid

    Adding to UFluid

    Adding to phiFluid

    Adding to hRefFluid

    Adding to ghFluid

    Adding to ghfFluid

    Adding to turbulence

Selecting turbulence model type RAS
Selecting RAS turbulence model realizableKE
RAS
{
    RASModel        realizableKE;
    turbulence      on;
    printCoeffs     on;
    A0              4;
    C2              1.9;
    sigmak          1;
    sigmaEps        1.2;
}

Radiation model not active: radiationProperties not found
Selecting radiationModel none
    Adding MRF

No MRF models present

    Adding fvOptions

Creating finite volume options from "system/fvOptions"

Selecting finite volume options type limitTemperature
    Source: limitT
    State: active
    - selecting all cells
    - selected 9320 cell(s) with volume 17.447082
*** Reading solid mesh thermophysical properties for region pcb

    Adding to thermos

Selecting thermodynamics package 
{
    type            heSolidThermo;
    mixture         pureMixture;
    transport       constIso;
    thermo          hConst;
    equationOfState rhoConst;
    specie          specie;
    energy          sensibleEnthalpy;
}

    Adding to radiations

Radiation model not active: radiationProperties not found
Selecting radiationModel none
    Adding fvOptions

Creating finite volume options from "system/fvOptions"

Selecting finite volume options type limitTemperature
    Source: limitT
    State: active
    - selecting all cells
    - selected 684 cell(s) with volume 1.3270516
*** Reading solid mesh thermophysical properties for region component_0

    Adding to thermos

Selecting thermodynamics package 
{
    type            heSolidThermo;
    mixture         pureMixture;
    transport       constIso;
    thermo          hConst;
    equationOfState rhoConst;
    specie          specie;
    energy          sensibleEnthalpy;
}

    Adding to radiations

Radiation model not active: radiationProperties not found
Selecting radiationModel none
    Adding fvOptions

Creating finite volume options from "system/fvOptions"

Selecting finite volume options type scalarSemiImplicitSource
    Source: v_CPU_AbsoluteEnergySource
    State: active
    - selecting cells using cellZones (component_0)
    - selected 120 cell(s) with volume 0.21996495
Selecting finite volume options type limitTemperature
    Source: limitT
    State: active
    - selecting all cells
    - selected 120 cell(s) with volume 0.21996495
*** Reading solid mesh thermophysical properties for region component_1

    Adding to thermos

Selecting thermodynamics package 
{
    type            heSolidThermo;
    mixture         pureMixture;
    transport       constIso;
    thermo          hConst;
    equationOfState rhoConst;
    specie          specie;
    energy          sensibleEnthalpy;
}

    Adding to radiations

Radiation model not active: radiationProperties not found
Selecting radiationModel none
    Adding fvOptions

Creating finite volume options from "system/fvOptions"

Selecting finite volume options type scalarSemiImplicitSource
    Source: v_CPU_AbsoluteEnergySource
    State: active
    - selecting cells using cellZones (component_1)
    - selected 102 cell(s) with volume 0.1761426
Selecting finite volume options type limitTemperature
    Source: limitT
    State: active
    - selecting all cells
    - selected 102 cell(s) with volume 0.1761426
*** Reading solid mesh thermophysical properties for region component_2

    Adding to thermos

Selecting thermodynamics package 
{
    type            heSolidThermo;
    mixture         pureMixture;
    transport       constIso;
    thermo          hConst;
    equationOfState rhoConst;
    specie          specie;
    energy          sensibleEnthalpy;
}

    Adding to radiations

Radiation model not active: radiationProperties not found
Selecting radiationModel none
    Adding fvOptions

Creating finite volume options from "system/fvOptions"

Selecting finite volume options type scalarSemiImplicitSource
    Source: v_CPU_AbsoluteEnergySource
    State: active
    - selecting cells using cellZones (component_2)
    - selected 196 cell(s) with volume 0.39826252
Selecting finite volume options type limitTemperature
    Source: limitT
    State: active
    - selecting all cells
    - selected 196 cell(s) with volume 0.39826252
*** Reading solid mesh thermophysical properties for region component_3

    Adding to thermos

Selecting thermodynamics package 
{
    type            heSolidThermo;
    mixture         pureMixture;
    transport       constIso;
    thermo          hConst;
    equationOfState rhoConst;
    specie          specie;
    energy          sensibleEnthalpy;
}

    Adding to radiations

Radiation model not active: radiationProperties not found
Selecting radiationModel none
    Adding fvOptions

Creating finite volume options from "system/fvOptions"

Selecting finite volume options type scalarSemiImplicitSource
    Source: v_CPU_AbsoluteEnergySource
    State: active
    - selecting cells using cellZones (component_3)
    - selected 228 cell(s) with volume 0.41441104
Selecting finite volume options type limitTemperature
    Source: limitT
    State: active
    - selecting all cells
    - selected 228 cell(s) with volume 0.41441104
*** Reading solid mesh thermophysical properties for region component_4

    Adding to thermos

Selecting thermodynamics package 
{
    type            heSolidThermo;
    mixture         pureMixture;
    transport       constIso;
    thermo          hConst;
    equationOfState rhoConst;
    specie          specie;
    energy          sensibleEnthalpy;
}

    Adding to radiations

Radiation model not active: radiationProperties not found
Selecting radiationModel none
    Adding fvOptions

Creating finite volume options from "system/fvOptions"

Selecting finite volume options type scalarSemiImplicitSource
    Source: v_CPU_AbsoluteEnergySource
    State: active
    - selecting cells using cellZones (component_4)
    - selected 11 cell(s) with volume 0.017085001
Selecting finite volume options type limitTemperature
    Source: limitT
    State: active
    - selecting all cells
    - selected 11 cell(s) with volume 0.017085001
Create fvMatrixAssembly.
--> FOAM Warning : 

    failed lookup of region0 (objectRegistry case_54)
    available objects of type objectRegistry:
7(component_3 component_0 component_1 fluid pcb component_4 component_2)


    From const Type& Foam::objectRegistry::lookupObject(const Foam::word&, bool) const [with Type = Foam::objectRegistry]
    in file db/objectRegistry/objectRegistryTemplates.C at line 628.
--> loading function object 'limitT'

Time = 1


Solving for fluid region fluid
DILUPBiCGStab:  Solving for Ux, Initial residual = 1, Final residual = 0.020186865, No Iterations 3
DILUPBiCGStab:  Solving for Uy, Initial residual = 1, Final residual = 0.0332839, No Iterations 3

Solving energy coupled regions
Creating lduPrimitiveAssembly: lduAssembly456789
DILUPBiCGStab:  Solving for h, Initial residual = 0.0084858809, Final residual = 0.00029078053, No Iterations 1
limitTemperature=limitT, Type=Lower, LimitedCells=0, CellsPercent=0, Tmin=250, UnlimitedTmin=300
limitTemperature=limitT, Type=Upper, LimitedCells=0, CellsPercent=0, Tmax=6000, UnlimitedTmax=300
limitTemperature=limitT, Type=Lower, LimitedCells=0, CellsPercent=0, Tmin=250, UnlimitedTmin=300
limitTemperature=limitT, Type=Upper, LimitedCells=0, CellsPercent=0, Tmax=6000, UnlimitedTmax=300
limitTemperature=limitT, Type=Lower, LimitedCells=0, CellsPercent=0, Tmin=250, UnlimitedTmin=300
limitTemperature=limitT, Type=Upper, LimitedCells=0, CellsPercent=0, Tmax=6000, UnlimitedTmax=300
limitTemperature=limitT, Type=Lower, LimitedCells=0, CellsPercent=0, Tmin=250, UnlimitedTmin=300
limitTemperature=limitT, Type=Upper, LimitedCells=0, CellsPercent=0, Tmax=6000, UnlimitedTmax=300
limitTemperature=limitT, Type=Lower, LimitedCells=0, CellsPercent=0, Tmin=250, UnlimitedTmin=300
limitTemperature=limitT, Type=Upper, LimitedCells=0, CellsPercent=0, Tmax=6000, UnlimitedTmax=300
limitTemperature=limitT, Type=Lower, LimitedCells=0, CellsPercent=0, Tmin=250, UnlimitedTmin=300
limitTemperature=limitT, Type=Upper, LimitedCells=0, CellsPercent=0, Tmax=6000, UnlimitedTmax=300
limitTemperature=limitT, Type=Lower, LimitedCells=0, CellsPercent=0, Tmin=250, UnlimitedTmin=300
limitTemperature=limitT, Type=Upper, LimitedCells=0, CellsPercent=0, Tmax=6000, UnlimitedTmax=300
DICPBiCGStab:  Solving for p_rgh, Initial residual = 1, Final residual = 0.098445132, No Iterations 92
time step continuity errors : sum local = 0.028780288, global = -0.018714913, cumulative = -0.018714913
Min/max rho:1.1764207 1.1767402
DILUPBiCGStab:  Solving for epsilon, Initial residual = 0.82348054, Final residual = 0.0019458127, No Iterations 1
DILUPBiCGStab:  Solving for k, Initial residual = 1, Final residual = 0.01969642, No Iterations 1
ExecutionTime = 0.32 s  ClockTime = 0 s

volFieldValue fluid write:
    volAverage(fluid) of T = 299.99993

volFieldValue pcb write:
    volAverage(pcb) of T = 300.00426

volFieldValue component_0 write:
    volAverage(component_0) of T = 300.34006

volFieldValue component_1 write:
    volAverage(component_1) of T = 300.96392

volFieldValue component_2 write:
    volAverage(component_2) of T = 300.32022

volFieldValue component_3 write:
    volAverage(component_3) of T = 300.59986

volFieldValue component_4 write:
    volAverage(component_4) of T = 309.01757

Time = 2


Solving for fluid region fluid
DILUPBiCGStab:  Solving for Ux, Initial residual = 0.59052365, Final residual = 0.013424553, No Iterations 2
DILUPBiCGStab:  Solving for Uy, Initial residual = 0.56453548, Final residual = 0.013118404, No Iterations 2

Solving energy coupled regions
Using lduPrimitiveAssembly: lduAssembly456789
DILUPBiCGStab:  Solving for h, Initial residual = 0.008506599, Final residual = 0.00022957748, No Iterations 1
limitTemperature=limitT, Type=Lower, LimitedCells=0, CellsPercent=0, Tmin=250, UnlimitedTmin=299.95678
limitTemperature=limitT, Type=Upper, LimitedCells=0, CellsPercent=0, Tmax=6000, UnlimitedTmax=300.11975
limitTemperature=limitT, Type=Lower, LimitedCells=0, CellsPercent=0, Tmin=250, UnlimitedTmin=299.97493
limitTemperature=limitT, Type=Upper, LimitedCells=0, CellsPercent=0, Tmax=6000, UnlimitedTmax=300.29488
limitTemperature=limitT, Type=Lower, LimitedCells=0, CellsPercent=0, Tmin=250, UnlimitedTmin=300.29865
limitTemperature=limitT, Type=Upper, LimitedCells=0, CellsPercent=0, Tmax=6000, UnlimitedTmax=300.44511
limitTemperature=limitT, Type=Lower, LimitedCells=0, CellsPercent=0, Tmin=250, UnlimitedTmin=300.71581
limitTemperature=limitT, Type=Upper, LimitedCells=0, CellsPercent=0, Tmax=6000, UnlimitedTmax=301.25845
limitTemperature=limitT, Type=Lower, LimitedCells=0, CellsPercent=0, Tmin=250, UnlimitedTmin=300.22711
limitTemperature=limitT, Type=Upper, LimitedCells=0, CellsPercent=0, Tmax=6000, UnlimitedTmax=300.38298
limitTemperature=limitT, Type=Lower, LimitedCells=0, CellsPercent=0, Tmin=250, UnlimitedTmin=300.5257
limitTemperature=limitT, Type=Upper, LimitedCells=0, CellsPercent=0, Tmax=6000, UnlimitedTmax=300.77053
limitTemperature=limitT, Type=Lower, LimitedCells=0, CellsPercent=0, Tmin=250, UnlimitedTmin=307.62844
limitTemperature=limitT, Type=Upper, LimitedCells=0, CellsPercent=0, Tmax=6000, UnlimitedTmax=309.71261
DICPBiCGStab:  Solving for p_rgh, Initial residual = 0.27403615, Final residual = 0.019564353, No Iterations 116
time step continuity errors : sum local = 0.022216113, global = -0.0066995275, cumulative = -0.02541444
Min/max rho:1.1593079 1.1769301
DILUPBiCGStab:  Solving for epsilon, Initial residual = 0.78657651, Final residual = 0.0047329017, No Iterations 1
DILUPBiCGStab:  Solving for k, Initial residual = 0.81337095, Final residual = 0.022672816, No Iterations 1
ExecutionTime = 0.5 s  ClockTime = 0 s

volFieldValue fluid write:
    volAverage(fluid) of T = 299.99999

volFieldValue pcb write:
    volAverage(pcb) of T = 300.01269

volFieldValue component_0 write:
    volAverage(component_0) of T = 300.67648

volFieldValue component_1 write:
    volAverage(component_1) of T = 301.89952

volFieldValue component_2 write:
    volAverage(component_2) of T = 300.63616

volFieldValue component_3 write:
    volAverage(component_3) of T = 301.19034

volFieldValue component_4 write:
    volAverage(component_4) of T = 317.12514

Time = 3


Solving for fluid region fluid
DILUPBiCGStab:  Solving for Ux, Initial residual = 0.42929417, Final residual = 0.01099129, No Iterations 2
DILUPBiCGStab:  Solving for Uy, Initial residual = 0.34993588, Final residual = 0.0078039235, No Iterations 2

Solving energy coupled regions
Using lduPrimitiveAssembly: lduAssembly456789
DILUPBiCGStab:  Solving for h, Initial residual = 0.0072531286, Final residual = 0.00016302773, No Iterations 1
limitTemperature=limitT, Type=Lower, LimitedCells=0, CellsPercent=0, Tmin=250, UnlimitedTmin=299.97012
limitTemperature=limitT, Type=Upper, LimitedCells=0, CellsPercent=0, Tmax=6000, UnlimitedTmax=300.11372
limitTemperature=limitT, Type=Lower, LimitedCells=0, CellsPercent=0, Tmin=250, UnlimitedTmin=299.96545
limitTemperature=limitT, Type=Upper, LimitedCells=0, CellsPercent=0, Tmax=6000, UnlimitedTmax=300.83652
limitTemperature=limitT, Type=Lower, LimitedCells=0, CellsPercent=0, Tmin=250, UnlimitedTmin=300.60821
limitTemperature=limitT, Type=Upper, LimitedCells=0, CellsPercent=0, Tmax=6000, UnlimitedTmax=300.83797
limitTemperature=limitT, Type=Lower, LimitedCells=0, CellsPercent=0, Tmin=250, UnlimitedTmin=301.48964
limitTemperature=limitT, Type=Upper, LimitedCells=0, CellsPercent=0, Tmax=6000, UnlimitedTmax=302.35464
limitTemperature=limitT, Type=Lower, LimitedCells=0, CellsPercent=0, Tmin=250, UnlimitedTmin=300.48278
limitTemperature=limitT, Type=Upper, LimitedCells=0, CellsPercent=0, Tmax=6000, UnlimitedTmax=300.73991
limitTemperature=limitT, Type=Lower, LimitedCells=0, CellsPercent=0, Tmin=250, UnlimitedTmin=301.0748
limitTemperature=limitT, Type=Upper, LimitedCells=0, CellsPercent=0, Tmax=6000, UnlimitedTmax=301.45307
limitTemperature=limitT, Type=Lower, LimitedCells=0, CellsPercent=0, Tmin=250, UnlimitedTmin=314.68568
limitTemperature=limitT, Type=Upper, LimitedCells=0, CellsPercent=0, Tmax=6000, UnlimitedTmax=318.2601
DICPBiCGStab:  Solving for p_rgh, Initial residual = 0.12373453, Final residual = 0.012357536, No Iterations 18
time step continuity errors : sum local = 0.039509442, global = -0.014513133, cumulative = -0.039927573
Min/max rho:1.1358633 1.1775522
DILUPBiCGStab:  Solving for epsilon, Initial residual = 0.68886182, Final residual = 0.0058591018, No Iterations 1
DILUPBiCGStab:  Solving for k, Initial residual = 0.62739395, Final residual = 0.02028507, No Iterations 1
ExecutionTime = 0.58 s  ClockTime = 0 s

volFieldValue fluid write:
    volAverage(fluid) of T = 300.00074

volFieldValue pcb write:
    volAverage(pcb) of T = 300.02469

volFieldValue component_0 write:
    volAverage(component_0) of T = 300.99296

volFieldValue component_1 write:
    volAverage(component_1) of T = 302.59337

volFieldValue component_2 write:
    volAverage(component_2) of T = 300.9258

volFieldValue component_3 write:
    volAverage(component_3) of T = 301.71599

volFieldValue component_4 write:
    volAverage(component_4) of T = 315.32078

Time = 4


Solving for fluid region fluid
DILUPBiCGStab:  Solving for Ux, Initial residual = 0.27148105, Final residual = 0.0061684748, No Iterations 2
DILUPBiCGStab:  Solving for Uy, Initial residual = 0.22985031, Final residual = 0.0049855338, No Iterations 2

Solving energy coupled regions
Using lduPrimitiveAssembly: lduAssembly456789
DILUPBiCGStab:  Solving for h, Initial residual = 0.0078242846, Final residual = 0.00024573195, No Iterations 1
limitTemperature=limitT, Type=Lower, LimitedCells=0, CellsPercent=0, Tmin=250, UnlimitedTmin=299.98018
limitTemperature=limitT, Type=Upper, LimitedCells=0, CellsPercent=0, Tmax=6000, UnlimitedTmax=300.52144
limitTemperature=limitT, Type=Lower, LimitedCells=0, CellsPercent=0, Tmin=250, UnlimitedTmin=299.97487
limitTemperature=limitT, Type=Upper, LimitedCells=0, CellsPercent=0, Tmax=6000, UnlimitedTmax=301.29378
limitTemperature=limitT, Type=Lower, LimitedCells=0, CellsPercent=0, Tmin=250, UnlimitedTmin=300.92574
limitTemperature=limitT, Type=Upper, LimitedCells=0, CellsPercent=0, Tmax=6000, UnlimitedTmax=301.16415
limitTemperature=limitT, Type=Lower, LimitedCells=0, CellsPercent=0, Tmin=250, UnlimitedTmin=301.77572
limitTemperature=limitT, Type=Upper, LimitedCells=0, CellsPercent=0, Tmax=6000, UnlimitedTmax=303.01159
limitTemperature=limitT, Type=Lower, LimitedCells=0, CellsPercent=0, Tmin=250, UnlimitedTmin=300.73313
limitTemperature=limitT, Type=Upper, LimitedCells=0, CellsPercent=0, Tmax=6000, UnlimitedTmax=301.08416
limitTemperature=limitT, Type=Lower, LimitedCells=0, CellsPercent=0, Tmin=250, UnlimitedTmin=301.48237
limitTemperature=limitT, Type=Upper, LimitedCells=0, CellsPercent=0, Tmax=6000, UnlimitedTmax=301.95672
limitTemperature=limitT, Type=Lower, LimitedCells=0, CellsPercent=0, Tmin=250, UnlimitedTmin=308.88877
limitTemperature=limitT, Type=Upper, LimitedCells=0, CellsPercent=0, Tmax=6000, UnlimitedTmax=317.59959
DICPBiCGStab:  Solving for p_rgh, Initial residual = 0.17767388, Final residual = 0.017362816, No Iterations 9
time step continuity errors : sum local = 0.061033899, global = -0.019359746, cumulative = -0.05928732
Min/max rho:1.126019 1.1778688
DILUPBiCGStab:  Solving for epsilon, Initial residual = 0.5343646, Final residual = 0.0076580761, No Iterations 1
DILUPBiCGStab:  Solving for k, Initial residual = 0.47152455, Final residual = 0.018347591, No Iterations 1
ExecutionTime = 0.61 s  ClockTime = 0 s

volFieldValue fluid write:
    volAverage(fluid) of T = 300.00155

volFieldValue pcb write:
    volAverage(pcb) of T = 300.03964

volFieldValue component_0 write:
    volAverage(component_0) of T = 301.28994

volFieldValue component_1 write:
    volAverage(component_1) of T = 303.12296

volFieldValue component_2 write:
    volAverage(component_2) of T = 301.19185

volFieldValue component_3 write:
    volAverage(component_3) of T = 302.18708

volFieldValue component_4 write:
    volAverage(component_4) of T = 307.68318

Time = 5


Solving for fluid region fluid
DILUPBiCGStab:  Solving for Ux, Initial residual = 0.17403539, Final residual = 0.0041197288, No Iterations 2
DILUPBiCGStab:  Solving for Uy, Initial residual = 0.13472842, Final residual = 0.0029388953, No Iterations 2

Solving energy coupled regions
Using lduPrimitiveAssembly: lduAssembly456789
DILUPBiCGStab:  Solving for h, Initial residual = 0.0070922777, Final residual = 0.00020793702, No Iterations 1
limitTemperature=limitT, Type=Lower, LimitedCells=0, CellsPercent=0, Tmin=250, UnlimitedTmin=299.98531
limitTemperature=limitT, Type=Upper, LimitedCells=0, CellsPercent=0, Tmax=6000, UnlimitedTmax=300.68511
limitTemperature=limitT, Type=Lower, LimitedCells=0, CellsPercent=0, Tmin=250, UnlimitedTmin=299.98149
limitTemperature=limitT, Type=Upper, LimitedCells=0, CellsPercent=0, Tmax=6000, UnlimitedTmax=301.50904
limitTemperature=limitT, Type=Lower, LimitedCells=0, CellsPercent=0, Tmin=250, UnlimitedTmin=301.17983
limitTemperature=limitT, Type=Upper, LimitedCells=0, CellsPercent=0, Tmax=6000, UnlimitedTmax=301.46597
limitTemperature=limitT, Type=Lower, LimitedCells=0, CellsPercent=0, Tmin=250, UnlimitedTmin=300.74551
limitTemperature=limitT, Type=Upper, LimitedCells=0, CellsPercent=0, Tmax=6000, UnlimitedTmax=303.80849
limitTemperature=limitT, Type=Lower, LimitedCells=0, CellsPercent=0, Tmin=250, UnlimitedTmin=300.82255
limitTemperature=limitT, Type=Upper, LimitedCells=0, CellsPercent=0, Tmax=6000, UnlimitedTmax=301.41542
limitTemperature=limitT, Type=Lower, LimitedCells=0, CellsPercent=0, Tmin=250, UnlimitedTmin=301.34274
limitTemperature=limitT, Type=Upper, LimitedCells=0, CellsPercent=0, Tmax=6000, UnlimitedTmax=302.54885
limitTemperature=limitT, Type=Lower, LimitedCells=0, CellsPercent=0, Tmin=250, UnlimitedTmin=294.76054
limitTemperature=limitT, Type=Upper, LimitedCells=0, CellsPercent=0, Tmax=6000, UnlimitedTmax=313.04427
DICPBiCGStab:  Solving for p_rgh, Initial residual = 0.19503681, Final residual = 0.017090302, No Iterations 40
time step continuity errors : sum local = 0.062736619, global = 0.015378126, cumulative = -0.043909193
Min/max rho:1.1277722 1.1780317
DILUPBiCGStab:  Solving for epsilon, Initial residual = 0.34193066, Final residual = 0.007134322, No Iterations 1
DILUPBiCGStab:  Solving for k, Initial residual = 0.35060993, Final residual = 0.015414086, No Iterations 1
ExecutionTime = 0.71 s  ClockTime = 0 s

volFieldValue fluid write:
    volAverage(fluid) of T = 300.00194

volFieldValue pcb write:
    volAverage(pcb) of T = 300.05621

volFieldValue component_0 write:
    volAverage(component_0) of T = 301.57735

volFieldValue component_1 write:
    volAverage(component_1) of T = 303.65509

volFieldValue component_2 write:
    volAverage(component_2) of T = 301.44543

volFieldValue component_3 write:
    volAverage(component_3) of T = 302.63737

volFieldValue component_4 write:
    volAverage(component_4) of T = 303.95264

Time = 6


Solving for fluid region fluid
DILUPBiCGStab:  Solving for Ux, Initial residual = 0.1256668, Final residual = 0.0030173435, No Iterations 2
DILUPBiCGStab:  Solving for Uy, Initial residual = 0.074665774, Final residual = 0.001790672, No Iterations 2

Solving energy coupled regions
Using lduPrimitiveAssembly: lduAssembly456789
DILUPBiCGStab:  Solving for h, Initial residual = 0.0070147311, Final residual = 0.00025676708, No Iterations 1
limitTemperature=limitT, Type=Lower, LimitedCells=0, CellsPercent=0, Tmin=250, UnlimitedTmin=299.98732
limitTemperature=limitT, Type=Upper, LimitedCells=0, CellsPercent=0, Tmax=6000, UnlimitedTmax=300.67375
limitTemperature=limitT, Type=Lower, LimitedCells=0, CellsPercent=0, Tmin=250, UnlimitedTmin=299.98539
limitTemperature=limitT, Type=Upper, LimitedCells=0, CellsPercent=0, Tmax=6000, UnlimitedTmax=301.55828
limitTemperature=limitT, Type=Lower, LimitedCells=0, CellsPercent=0, Tmin=250, UnlimitedTmin=301.31976
limitTemperature=limitT, Type=Upper, LimitedCells=0, CellsPercent=0, Tmax=6000, UnlimitedTmax=301.76471
limitTemperature=limitT, Type=Lower, LimitedCells=0, CellsPercent=0, Tmin=250, UnlimitedTmin=300.81076
limitTemperature=limitT, Type=Upper, LimitedCells=0, CellsPercent=0, Tmax=6000, UnlimitedTmax=304.6024
limitTemperature=limitT, Type=Lower, LimitedCells=0, CellsPercent=0, Tmin=250, UnlimitedTmin=300.90647
limitTemperature=limitT, Type=Upper, LimitedCells=0, CellsPercent=0, Tmax=6000, UnlimitedTmax=301.73342
limitTemperature=limitT, Type=Lower, LimitedCells=0, CellsPercent=0, Tmin=250, UnlimitedTmin=301.4083
limitTemperature=limitT, Type=Upper, LimitedCells=0, CellsPercent=0, Tmax=6000, UnlimitedTmax=303.12894
limitTemperature=limitT, Type=Lower, LimitedCells=0, CellsPercent=0, Tmin=250, UnlimitedTmin=292.42244
limitTemperature=limitT, Type=Upper, LimitedCells=0, CellsPercent=0, Tmax=6000, UnlimitedTmax=308.39859
DICPBiCGStab:  Solving for p_rgh, Initial residual = 0.20701365, Final residual = 0.020644986, No Iterations 24
time step continuity errors : sum local = 0.067147439, global = 0.0028215601, cumulative = -0.041087633
Min/max rho:1.1367826 1.1880623
DILUPBiCGStab:  Solving for epsilon, Initial residual = 0.2206335, Final residual = 0.0058303369, No Iterations 1
DILUPBiCGStab:  Solving for k, Initial residual = 0.26604075, Final residual = 0.012232568, No Iterations 1
ExecutionTime = 0.8 s  ClockTime = 1 s

volFieldValue fluid write:
    volAverage(fluid) of T = 300.00216

volFieldValue pcb write:
    volAverage(pcb) of T = 300.07452

volFieldValue component_0 write:
    volAverage(component_0) of T = 301.85554

volFieldValue component_1 write:
    volAverage(component_1) of T = 304.20981

volFieldValue component_2 write:
    volAverage(component_2) of T = 301.6888

volFieldValue component_3 write:
    volAverage(component_3) of T = 303.07338

volFieldValue component_4 write:
    volAverage(component_4) of T = 308.03815

Time = 7


Solving for fluid region fluid
DILUPBiCGStab:  Solving for Ux, Initial residual = 0.11768408, Final residual = 0.0026766167, No Iterations 2
DILUPBiCGStab:  Solving for Uy, Initial residual = 0.055726445, Final residual = 0.0011995493, No Iterations 2

Solving energy coupled regions
Using lduPrimitiveAssembly: lduAssembly456789
DILUPBiCGStab:  Solving for h, Initial residual = 0.0071347597, Final residual = 0.0002289569, No Iterations 1
limitTemperature=limitT, Type=Lower, LimitedCells=0, CellsPercent=0, Tmin=250, UnlimitedTmin=299.98903
limitTemperature=limitT, Type=Upper, LimitedCells=0, CellsPercent=0, Tmax=6000, UnlimitedTmax=300.66335
limitTemperature=limitT, Type=Lower, LimitedCells=0, CellsPercent=0, Tmin=250, UnlimitedTmin=299.98801
limitTemperature=limitT, Type=Upper, LimitedCells=0, CellsPercent=0, Tmax=6000, UnlimitedTmax=301.64087
limitTemperature=limitT, Type=Lower, LimitedCells=0, CellsPercent=0, Tmin=250, UnlimitedTmin=301.4815
limitTemperature=limitT, Type=Upper, LimitedCells=0, CellsPercent=0, Tmax=6000, UnlimitedTmax=302.08148
limitTemperature=limitT, Type=Lower, LimitedCells=0, CellsPercent=0, Tmin=250, UnlimitedTmin=301.93327
limitTemperature=limitT, Type=Upper, LimitedCells=0, CellsPercent=0, Tmax=6000, UnlimitedTmax=305.39218
limitTemperature=limitT, Type=Lower, LimitedCells=0, CellsPercent=0, Tmin=250, UnlimitedTmin=301.0248
limitTemperature=limitT, Type=Upper, LimitedCells=0, CellsPercent=0, Tmax=6000, UnlimitedTmax=302.04182
limitTemperature=limitT, Type=Lower, LimitedCells=0, CellsPercent=0, Tmin=250, UnlimitedTmin=301.63897
limitTemperature=limitT, Type=Upper, LimitedCells=0, CellsPercent=0, Tmax=6000, UnlimitedTmax=303.68984
limitTemperature=limitT, Type=Lower, LimitedCells=0, CellsPercent=0, Tmin=250, UnlimitedTmin=305.91681
limitTemperature=limitT, Type=Upper, LimitedCells=0, CellsPercent=0, Tmax=6000, UnlimitedTmax=308.83859
DICPBiCGStab:  Solving for p_rgh, Initial residual = 0.16762055, Final residual = 0.01657992, No Iterations 98
time step continuity errors : sum local = 0.055442423, global = 0.0076318728, cumulative = -0.033455761
Min/max rho:1.1415171 1.1779776
DILUPBiCGStab:  Solving for epsilon, Initial residual = 0.15945787, Final residual = 0.0040022264, No Iterations 1
DILUPBiCGStab:  Solving for k, Initial residual = 0.22096617, Final residual = 0.0092598618, No Iterations 1
ExecutionTime = 0.92 s  ClockTime = 1 s

volFieldValue fluid write:
    volAverage(fluid) of T = 300.00238

volFieldValue pcb write:
    volAverage(pcb) of T = 300.09485

volFieldValue component_0 write:
    volAverage(component_0) of T = 302.12765

volFieldValue component_1 write:
    volAverage(component_1) of T = 304.75142

volFieldValue component_2 write:
    volAverage(component_2) of T = 301.92461

volFieldValue component_3 write:
    volAverage(component_3) of T = 303.49721

volFieldValue component_4 write:
    volAverage(component_4) of T = 314.94657

Time = 8


Solving for fluid region fluid
DILUPBiCGStab:  Solving for Ux, Initial residual = 0.096704072, Final residual = 0.0023211862, No Iterations 2
DILUPBiCGStab:  Solving for Uy, Initial residual = 0.10224213, Final residual = 0.0026221647, No Iterations 2

Solving energy coupled regions
Using lduPrimitiveAssembly: lduAssembly456789
DILUPBiCGStab:  Solving for h, Initial residual = 0.0069045705, Final residual = 0.00022829866, No Iterations 1
limitTemperature=limitT, Type=Lower, LimitedCells=0, CellsPercent=0, Tmin=250, UnlimitedTmin=299.99143
limitTemperature=limitT, Type=Upper, LimitedCells=0, CellsPercent=0, Tmax=6000, UnlimitedTmax=300.71778
limitTemperature=limitT, Type=Lower, LimitedCells=0, CellsPercent=0, Tmin=250, UnlimitedTmin=299.99072
limitTemperature=limitT, Type=Upper, LimitedCells=0, CellsPercent=0, Tmax=6000, UnlimitedTmax=301.87863
limitTemperature=limitT, Type=Lower, LimitedCells=0, CellsPercent=0, Tmin=250, UnlimitedTmin=301.65716
limitTemperature=limitT, Type=Upper, LimitedCells=0, CellsPercent=0, Tmax=6000, UnlimitedTmax=302.39624
limitTemperature=limitT, Type=Lower, LimitedCells=0, CellsPercent=0, Tmin=250, UnlimitedTmin=302.38028
limitTemperature=limitT, Type=Upper, LimitedCells=0, CellsPercent=0, Tmax=6000, UnlimitedTmax=306.17246
limitTemperature=limitT, Type=Lower, LimitedCells=0, CellsPercent=0, Tmin=250, UnlimitedTmin=301.13033
limitTemperature=limitT, Type=Upper, LimitedCells=0, CellsPercent=0, Tmax=6000, UnlimitedTmax=302.33766
limitTemperature=limitT, Type=Lower, LimitedCells=0, CellsPercent=0, Tmin=250, UnlimitedTmin=301.74378
limitTemperature=limitT, Type=Upper, LimitedCells=0, CellsPercent=0, Tmax=6000, UnlimitedTmax=304.23959
limitTemperature=limitT, Type=Lower, LimitedCells=0, CellsPercent=0, Tmin=250, UnlimitedTmin=310.64321
limitTemperature=limitT, Type=Upper, LimitedCells=0, CellsPercent=0, Tmax=6000, UnlimitedTmax=323.01621
DICPBiCGStab:  Solving for p_rgh, Initial residual = 0.64512888, Final residual = 0.063577849, No Iterations 8
time step continuity errors : sum local = 0.061017877, global = 0.016701428, cumulative = -0.016754332
Min/max rho:1.1298283 1.1773025
DILUPBiCGStab:  Solving for epsilon, Initial residual = 0.10646228, Final residual = 0.0032309256, No Iterations 1
DILUPBiCGStab:  Solving for k, Initial residual = 0.17453487, Final residual = 0.0025030614, No Iterations 2
ExecutionTime = 0.99 s  ClockTime = 1 s

volFieldValue fluid write:
    volAverage(fluid) of T = 300.00286

volFieldValue pcb write:
    volAverage(pcb) of T = 300.11755

volFieldValue component_0 write:
    volAverage(component_0) of T = 302.39324

volFieldValue component_1 write:
    volAverage(component_1) of T = 305.24732

volFieldValue component_2 write:
    volAverage(component_2) of T = 302.15419

volFieldValue component_3 write:
    volAverage(component_3) of T = 303.90632

volFieldValue component_4 write:
    volAverage(component_4) of T = 317.41868

Time = 9


Solving for fluid region fluid
DILUPBiCGStab:  Solving for Ux, Initial residual = 0.090420955, Final residual = 0.0020309832, No Iterations 2
DILUPBiCGStab:  Solving for Uy, Initial residual = 0.089372652, Final residual = 0.0022077123, No Iterations 2

Solving energy coupled regions
Using lduPrimitiveAssembly: lduAssembly456789
DILUPBiCGStab:  Solving for h, Initial residual = 0.0066071109, Final residual = 0.00026958752, No Iterations 1
limitTemperature=limitT, Type=Lower, LimitedCells=0, CellsPercent=0, Tmin=250, UnlimitedTmin=299.99103
limitTemperature=limitT, Type=Upper, LimitedCells=0, CellsPercent=0, Tmax=6000, UnlimitedTmax=300.63686
limitTemperature=limitT, Type=Lower, LimitedCells=0, CellsPercent=0, Tmin=250, UnlimitedTmin=299.99207
limitTemperature=limitT, Type=Upper, LimitedCells=0, CellsPercent=0, Tmax=6000, UnlimitedTmax=302.24329
limitTemperature=limitT, Type=Lower, LimitedCells=0, CellsPercent=0, Tmin=250, UnlimitedTmin=301.8352
limitTemperature=limitT, Type=Upper, LimitedCells=0, CellsPercent=0, Tmax=6000, UnlimitedTmax=302.70075
limitTemperature=limitT, Type=Lower, LimitedCells=0, CellsPercent=0, Tmin=250, UnlimitedTmin=302.15291
limitTemperature=limitT, Type=Upper, LimitedCells=0, CellsPercent=0, Tmax=6000, UnlimitedTmax=306.94327
limitTemperature=limitT, Type=Lower, LimitedCells=0, CellsPercent=0, Tmin=250, UnlimitedTmin=301.22579
limitTemperature=limitT, Type=Upper, LimitedCells=0, CellsPercent=0, Tmax=6000, UnlimitedTmax=302.61902
limitTemperature=limitT, Type=Lower, LimitedCells=0, CellsPercent=0, Tmin=250, UnlimitedTmin=301.79457
limitTemperature=limitT, Type=Upper, LimitedCells=0, CellsPercent=0, Tmax=6000, UnlimitedTmax=304.77053
limitTemperature=limitT, Type=Lower, LimitedCells=0, CellsPercent=0, Tmin=250, UnlimitedTmin=315.27027
limitTemperature=limitT, Type=Upper, LimitedCells=0, CellsPercent=0, Tmax=6000, UnlimitedTmax=319.29155
DICPBiCGStab:  Solving for p_rgh, Initial residual = 0.67071272, Final residual = 0.064232835, No Iterations 10
time step continuity errors : sum local = 0.063092296, global = 0.029775754, cumulative = 0.013021422
Min/max rho:1.1193443 1.1770848
DILUPBiCGStab:  Solving for epsilon, Initial residual = 0.082408552, Final residual = 0.0029432731, No Iterations 1
DILUPBiCGStab:  Solving for k, Initial residual = 0.14695908, Final residual = 0.0024042053, No Iterations 2
ExecutionTime = 1.03 s  ClockTime = 1 s

volFieldValue fluid write:
    volAverage(fluid) of T = 300.00361

volFieldValue pcb write:
    volAverage(pcb) of T = 300.14359

volFieldValue component_0 write:
    volAverage(component_0) of T = 302.65296

volFieldValue component_1 write:
    volAverage(component_1) of T = 305.68642

volFieldValue component_2 write:
    volAverage(component_2) of T = 302.37723

volFieldValue component_3 write:
    volAverage(component_3) of T = 304.30135

volFieldValue component_4 write:
    volAverage(component_4) of T = 314.47385

Time = 10


Solving for fluid region fluid
DILUPBiCGStab:  Solving for Ux, Initial residual = 0.091023127, Final residual = 0.0029030174, No Iterations 2
DILUPBiCGStab:  Solving for Uy, Initial residual = 0.074631755, Final residual = 0.0017530158, No Iterations 2

Solving energy coupled regions
Using lduPrimitiveAssembly: lduAssembly456789
DILUPBiCGStab:  Solving for h, Initial residual = 0.006711822, Final residual = 0.00021951677, No Iterations 1
limitTemperature=limitT, Type=Lower, LimitedCells=0, CellsPercent=0, Tmin=250, UnlimitedTmin=299.99068
limitTemperature=limitT, Type=Upper, LimitedCells=0, CellsPercent=0, Tmax=6000, UnlimitedTmax=301.98584
limitTemperature=limitT, Type=Lower, LimitedCells=0, CellsPercent=0, Tmin=250, UnlimitedTmin=299.99174
limitTemperature=limitT, Type=Upper, LimitedCells=0, CellsPercent=0, Tmax=6000, UnlimitedTmax=302.61976
limitTemperature=limitT, Type=Lower, LimitedCells=0, CellsPercent=0, Tmin=250, UnlimitedTmin=302.01385
limitTemperature=limitT, Type=Upper, LimitedCells=0, CellsPercent=0, Tmax=6000, UnlimitedTmax=303.00267
limitTemperature=limitT, Type=Lower, LimitedCells=0, CellsPercent=0, Tmin=250, UnlimitedTmin=301.80571
limitTemperature=limitT, Type=Upper, LimitedCells=0, CellsPercent=0, Tmax=6000, UnlimitedTmax=307.69366
limitTemperature=limitT, Type=Lower, LimitedCells=0, CellsPercent=0, Tmin=250, UnlimitedTmin=301.31844
limitTemperature=limitT, Type=Upper, LimitedCells=0, CellsPercent=0, Tmax=6000, UnlimitedTmax=302.89027
limitTemperature=limitT, Type=Lower, LimitedCells=0, CellsPercent=0, Tmin=250, UnlimitedTmin=301.85344
limitTemperature=limitT, Type=Upper, LimitedCells=0, CellsPercent=0, Tmax=6000, UnlimitedTmax=305.29487
limitTemperature=limitT, Type=Lower, LimitedCells=0, CellsPercent=0, Tmin=250, UnlimitedTmin=301.64659
limitTemperature=limitT, Type=Upper, LimitedCells=0, CellsPercent=0, Tmax=6000, UnlimitedTmax=317.73707
DICPBiCGStab:  Solving for p_rgh, Initial residual = 0.74378493, Final residual = 0.073624066, No Iterations 12
time step continuity errors : sum local = 0.08011056, global = 0.039938528, cumulative = 0.05295995
Min/max rho:1.1202516 1.177091
DILUPBiCGStab:  Solving for epsilon, Initial residual = 0.065202942, Final residual = 0.0026396639, No Iterations 1
DILUPBiCGStab:  Solving for k, Initial residual = 0.12740847, Final residual = 0.0022656874, No Iterations 2
ExecutionTime = 1.1 s  ClockTime = 1 s

volFieldValue fluid write:
    volAverage(fluid) of T = 300.00435

volFieldValue pcb write:
    volAverage(pcb) of T = 300.17038

volFieldValue component_0 write:
    volAverage(component_0) of T = 302.9103

volFieldValue component_1 write:
    volAverage(component_1) of T = 306.0713

volFieldValue component_2 write:
    volAverage(component_2) of T = 302.59584

volFieldValue component_3 write:
    volAverage(component_3) of T = 304.6893

volFieldValue component_4 write:
    volAverage(component_4) of T = 310.54328

Time = 11


Solving for fluid region fluid
DILUPBiCGStab:  Solving for Ux, Initial residual = 0.089708718, Final residual = 0.0020707608, No Iterations 2
DILUPBiCGStab:  Solving for Uy, Initial residual = 0.066043316, Final residual = 0.001683898, No Iterations 2

Solving energy coupled regions
Using lduPrimitiveAssembly: lduAssembly456789
DILUPBiCGStab:  Solving for h, Initial residual = 0.0067753514, Final residual = 0.00027485595, No Iterations 1
limitTemperature=limitT, Type=Lower, LimitedCells=0, CellsPercent=0, Tmin=250, UnlimitedTmin=299.9904
limitTemperature=limitT, Type=Upper, LimitedCells=0, CellsPercent=0, Tmax=6000, UnlimitedTmax=301.09297
limitTemperature=limitT, Type=Lower, LimitedCells=0, CellsPercent=0, Tmin=250, UnlimitedTmin=299.99143
limitTemperature=limitT, Type=Upper, LimitedCells=0, CellsPercent=0, Tmax=6000, UnlimitedTmax=302.88238
limitTemperature=limitT, Type=Lower, LimitedCells=0, CellsPercent=0, Tmin=250, UnlimitedTmin=302.18578
limitTemperature=limitT, Type=Upper, LimitedCells=0, CellsPercent=0, Tmax=6000, UnlimitedTmax=303.30042
limitTemperature=limitT, Type=Lower, LimitedCells=0, CellsPercent=0, Tmin=250, UnlimitedTmin=301.74388
limitTemperature=limitT, Type=Upper, LimitedCells=0, CellsPercent=0, Tmax=6000, UnlimitedTmax=308.42597
limitTemperature=limitT, Type=Lower, LimitedCells=0, CellsPercent=0, Tmin=250, UnlimitedTmin=301.39889
limitTemperature=limitT, Type=Upper, LimitedCells=0, CellsPercent=0, Tmax=6000, UnlimitedTmax=303.16165
limitTemperature=limitT, Type=Lower, LimitedCells=0, CellsPercent=0, Tmin=250, UnlimitedTmin=302.00125
limitTemperature=limitT, Type=Upper, LimitedCells=0, CellsPercent=0, Tmax=6000, UnlimitedTmax=305.80426
limitTemperature=limitT, Type=Lower, LimitedCells=0, CellsPercent=0, Tmin=250, UnlimitedTmin=293.6637
limitTemperature=limitT, Type=Upper, LimitedCells=0, CellsPercent=0, Tmax=6000, UnlimitedTmax=316.19222
DICPBiCGStab:  Solving for p_rgh, Initial residual = 0.74486516, Final residual = 0.071401257, No Iterations 12
time step continuity errors : sum local = 0.079765776, global = 0.049938628, cumulative = 0.10289858
Min/max rho:1.1193365 1.1770607
DILUPBiCGStab:  Solving for epsilon, Initial residual = 0.052189015, Final residual = 0.0022609429, No Iterations 1
DILUPBiCGStab:  Solving for k, Initial residual = 0.11182862, Final residual = 0.0042031309, No Iterations 2
ExecutionTime = 1.19 s  ClockTime = 1 s

volFieldValue fluid write:
    volAverage(fluid) of T = 300.00509

volFieldValue pcb write:
    volAverage(pcb) of T = 300.19839

volFieldValue component_0 write:
    volAverage(component_0) of T = 303.16265

volFieldValue component_1 write:
    volAverage(component_1) of T = 306.42055

volFieldValue component_2 write:
    volAverage(component_2) of T = 302.80493

volFieldValue component_3 write:
    volAverage(component_3) of T = 305.05719

volFieldValue component_4 write:
    volAverage(component_4) of T = 309.87562

Time = 12


Solving for fluid region fluid
DILUPBiCGStab:  Solving for Ux, Initial residual = 0.086149701, Final residual = 0.0016229213, No Iterations 2
DILUPBiCGStab:  Solving for Uy, Initial residual = 0.065373368, Final residual = 0.0017956792, No Iterations 2

Solving energy coupled regions
Using lduPrimitiveAssembly: lduAssembly456789
DILUPBiCGStab:  Solving for h, Initial residual = 0.0067752992, Final residual = 0.00030845458, No Iterations 1
limitTemperature=limitT, Type=Lower, LimitedCells=0, CellsPercent=0, Tmin=250, UnlimitedTmin=299.98969
limitTemperature=limitT, Type=Upper, LimitedCells=0, CellsPercent=0, Tmax=6000, UnlimitedTmax=301.01058
limitTemperature=limitT, Type=Lower, LimitedCells=0, CellsPercent=0, Tmin=250, UnlimitedTmin=299.99102
limitTemperature=limitT, Type=Upper, LimitedCells=0, CellsPercent=0, Tmax=6000, UnlimitedTmax=303.00839
limitTemperature=limitT, Type=Lower, LimitedCells=0, CellsPercent=0, Tmin=250, UnlimitedTmin=302.31299
limitTemperature=limitT, Type=Upper, LimitedCells=0, CellsPercent=0, Tmax=6000, UnlimitedTmax=303.58957
limitTemperature=limitT, Type=Lower, LimitedCells=0, CellsPercent=0, Tmin=250, UnlimitedTmin=301.38082
limitTemperature=limitT, Type=Upper, LimitedCells=0, CellsPercent=0, Tmax=6000, UnlimitedTmax=309.12408
limitTemperature=limitT, Type=Lower, LimitedCells=0, CellsPercent=0, Tmin=250, UnlimitedTmin=301.37781
limitTemperature=limitT, Type=Upper, LimitedCells=0, CellsPercent=0, Tmax=6000, UnlimitedTmax=303.43346
limitTemperature=limitT, Type=Lower, LimitedCells=0, CellsPercent=0, Tmin=250, UnlimitedTmin=302.17036
limitTemperature=limitT, Type=Upper, LimitedCells=0, CellsPercent=0, Tmax=6000, UnlimitedTmax=306.29865
limitTemperature=limitT, Type=Lower, LimitedCells=0, CellsPercent=0, Tmin=250, UnlimitedTmin=302.03614
limitTemperature=limitT, Type=Upper, LimitedCells=0, CellsPercent=0, Tmax=6000, UnlimitedTmax=312.6968
DICPBiCGStab:  Solving for p_rgh, Initial residual = 0.71193309, Final residual = 0.071103847, No Iterations 21
time step continuity errors : sum local = 0.074907372, global = 0.043428839, cumulative = 0.14632742
Min/max rho:1.1249881 1.1770316
DILUPBiCGStab:  Solving for epsilon, Initial residual = 0.045049281, Final residual = 0.0019244622, No Iterations 1
DILUPBiCGStab:  Solving for k, Initial residual = 0.10145842, Final residual = 0.0013778443, No Iterations 2
ExecutionTime = 1.24 s  ClockTime = 1 s

volFieldValue fluid write:
    volAverage(fluid) of T = 300.0057

volFieldValue pcb write:
    volAverage(pcb) of T = 300.22746

volFieldValue component_0 write:
    volAverage(component_0) of T = 303.40821

volFieldValue component_1 write:
    volAverage(component_1) of T = 306.79027

volFieldValue component_2 write:
    volAverage(component_2) of T = 303.00732

volFieldValue component_3 write:
    volAverage(component_3) of T = 305.41589

volFieldValue component_4 write:
    volAverage(component_4) of T = 312.50217

Time = 13


Solving for fluid region fluid
DILUPBiCGStab:  Solving for Ux, Initial residual = 0.077528366, Final residual = 0.0018381021, No Iterations 2
DILUPBiCGStab:  Solving for Uy, Initial residual = 0.070301103, Final residual = 0.001674588, No Iterations 2

Solving energy coupled regions
Using lduPrimitiveAssembly: lduAssembly456789
DILUPBiCGStab:  Solving for h, Initial residual = 0.0065383085, Final residual = 0.0002007876, No Iterations 1
limitTemperature=limitT, Type=Lower, LimitedCells=0, CellsPercent=0, Tmin=250, UnlimitedTmin=299.98723
limitTemperature=limitT, Type=Upper, LimitedCells=0, CellsPercent=0, Tmax=6000, UnlimitedTmax=300.91063
limitTemperature=limitT, Type=Lower, LimitedCells=0, CellsPercent=0, Tmin=250, UnlimitedTmin=299.99061
limitTemperature=limitT, Type=Upper, LimitedCells=0, CellsPercent=0, Tmax=6000, UnlimitedTmax=303.08895
limitTemperature=limitT, Type=Lower, LimitedCells=0, CellsPercent=0, Tmin=250, UnlimitedTmin=302.44291
limitTemperature=limitT, Type=Upper, LimitedCells=0, CellsPercent=0, Tmax=6000, UnlimitedTmax=303.87454
limitTemperature=limitT, Type=Lower, LimitedCells=0, CellsPercent=0, Tmin=250, UnlimitedTmin=301.51597
limitTemperature=limitT, Type=Upper, LimitedCells=0, CellsPercent=0, Tmax=6000, UnlimitedTmax=309.794
limitTemperature=limitT, Type=Lower, LimitedCells=0, CellsPercent=0, Tmin=250, UnlimitedTmin=301.38643
limitTemperature=limitT, Type=Upper, LimitedCells=0, CellsPercent=0, Tmax=6000, UnlimitedTmax=303.69872
limitTemperature=limitT, Type=Lower, LimitedCells=0, CellsPercent=0, Tmin=250, UnlimitedTmin=302.3392
limitTemperature=limitT, Type=Upper, LimitedCells=0, CellsPercent=0, Tmax=6000, UnlimitedTmax=306.78037
limitTemperature=limitT, Type=Lower, LimitedCells=0, CellsPercent=0, Tmin=250, UnlimitedTmin=308.20562
limitTemperature=limitT, Type=Upper, LimitedCells=0, CellsPercent=0, Tmax=6000, UnlimitedTmax=317.10915
DICPBiCGStab:  Solving for p_rgh, Initial residual = 0.70114983, Final residual = 0.070002081, No Iterations 22
time step continuity errors : sum local = 0.06297776, global = 0.043108871, cumulative = 0.18943629
Min/max rho:1.1298114 1.1769914
DILUPBiCGStab:  Solving for epsilon, Initial residual = 0.038528444, Final residual = 0.0017268043, No Iterations 1
DILUPBiCGStab:  Solving for k, Initial residual = 0.086499784, Final residual = 0.0016370419, No Iterations 2
ExecutionTime = 1.32 s  ClockTime = 1 s

volFieldValue fluid write:
    volAverage(fluid) of T = 300.00618

volFieldValue pcb write:
    volAverage(pcb) of T = 300.25758

volFieldValue component_0 write:
    volAverage(component_0) of T = 303.64855

volFieldValue component_1 write:
    volAverage(component_1) of T = 307.18602

volFieldValue component_2 write:
    volAverage(component_2) of T = 303.2135

volFieldValue component_3 write:
    volAverage(component_3) of T = 305.76977

volFieldValue component_4 write:
    volAverage(component_4) of T = 315.068

Time = 14


Solving for fluid region fluid
DILUPBiCGStab:  Solving for Ux, Initial residual = 0.065274548, Final residual = 0.0015710513, No Iterations 2
DILUPBiCGStab:  Solving for Uy, Initial residual = 0.072401575, Final residual = 0.0016711206, No Iterations 2

Solving energy coupled regions
Using lduPrimitiveAssembly: lduAssembly456789
DILUPBiCGStab:  Solving for h, Initial residual = 0.0065256014, Final residual = 0.00026056935, No Iterations 1
limitTemperature=limitT, Type=Lower, LimitedCells=0, CellsPercent=0, Tmin=250, UnlimitedTmin=299.98446
limitTemperature=limitT, Type=Upper, LimitedCells=0, CellsPercent=0, Tmax=6000, UnlimitedTmax=301.16272
limitTemperature=limitT, Type=Lower, LimitedCells=0, CellsPercent=0, Tmin=250, UnlimitedTmin=299.98796
limitTemperature=limitT, Type=Upper, LimitedCells=0, CellsPercent=0, Tmax=6000, UnlimitedTmax=303.23491
limitTemperature=limitT, Type=Lower, LimitedCells=0, CellsPercent=0, Tmin=250, UnlimitedTmin=302.57489
limitTemperature=limitT, Type=Upper, LimitedCells=0, CellsPercent=0, Tmax=6000, UnlimitedTmax=304.16325
limitTemperature=limitT, Type=Lower, LimitedCells=0, CellsPercent=0, Tmin=250, UnlimitedTmin=301.80031
limitTemperature=limitT, Type=Upper, LimitedCells=0, CellsPercent=0, Tmax=6000, UnlimitedTmax=310.45353
limitTemperature=limitT, Type=Lower, LimitedCells=0, CellsPercent=0, Tmin=250, UnlimitedTmin=301.4804
limitTemperature=limitT, Type=Upper, LimitedCells=0, CellsPercent=0, Tmax=6000, UnlimitedTmax=303.95884
limitTemperature=limitT, Type=Lower, LimitedCells=0, CellsPercent=0, Tmin=250, UnlimitedTmin=302.43706
limitTemperature=limitT, Type=Upper, LimitedCells=0, CellsPercent=0, Tmax=6000, UnlimitedTmax=307.2541
limitTemperature=limitT, Type=Lower, LimitedCells=0, CellsPercent=0, Tmin=250, UnlimitedTmin=310.8137
limitTemperature=limitT, Type=Upper, LimitedCells=0, CellsPercent=0, Tmax=6000, UnlimitedTmax=320.44565
DICPBiCGStab:  Solving for p_rgh, Initial residual = 0.66804035, Final residual = 0.065938042, No Iterations 26
time step continuity errors : sum local = 0.062798633, global = 0.033929745, cumulative = 0.22336603
Min/max rho:1.1223511 1.1769233
DILUPBiCGStab:  Solving for epsilon, Initial residual = 0.032956671, Final residual = 0.0015172688, No Iterations 1
DILUPBiCGStab:  Solving for k, Initial residual = 0.076791025, Final residual = 0.0014234339, No Iterations 2
ExecutionTime = 1.4 s  ClockTime = 1 s

volFieldValue fluid write:
    volAverage(fluid) of T = 300.0067

volFieldValue pcb write:
    volAverage(pcb) of T = 300.28946

volFieldValue component_0 write:
    volAverage(component_0) of T = 303.88058

volFieldValue component_1 write:
    volAverage(component_1) of T = 307.6038

volFieldValue component_2 write:
    volAverage(component_2) of T = 303.41535

volFieldValue component_3 write:
    volAverage(component_3) of T = 306.11066

volFieldValue component_4 write:
    volAverage(component_4) of T = 315.02639

Time = 15


Solving for fluid region fluid
DILUPBiCGStab:  Solving for Ux, Initial residual = 0.049843398, Final residual = 0.0012101954, No Iterations 2
DILUPBiCGStab:  Solving for Uy, Initial residual = 0.062246802, Final residual = 0.0015236887, No Iterations 2

Solving energy coupled regions
Using lduPrimitiveAssembly: lduAssembly456789
DILUPBiCGStab:  Solving for h, Initial residual = 0.0065322723, Final residual = 0.00024750315, No Iterations 1
limitTemperature=limitT, Type=Lower, LimitedCells=0, CellsPercent=0, Tmin=250, UnlimitedTmin=299.98508
limitTemperature=limitT, Type=Upper, LimitedCells=0, CellsPercent=0, Tmax=6000, UnlimitedTmax=300.89854
limitTemperature=limitT, Type=Lower, LimitedCells=0, CellsPercent=0, Tmin=250, UnlimitedTmin=299.98765
limitTemperature=limitT, Type=Upper, LimitedCells=0, CellsPercent=0, Tmax=6000, UnlimitedTmax=303.46712
limitTemperature=limitT, Type=Lower, LimitedCells=0, CellsPercent=0, Tmin=250, UnlimitedTmin=302.70272
limitTemperature=limitT, Type=Upper, LimitedCells=0, CellsPercent=0, Tmax=6000, UnlimitedTmax=304.4456
limitTemperature=limitT, Type=Lower, LimitedCells=0, CellsPercent=0, Tmin=250, UnlimitedTmin=301.983
limitTemperature=limitT, Type=Upper, LimitedCells=0, CellsPercent=0, Tmax=6000, UnlimitedTmax=311.08556
limitTemperature=limitT, Type=Lower, LimitedCells=0, CellsPercent=0, Tmin=250, UnlimitedTmin=301.58506
limitTemperature=limitT, Type=Upper, LimitedCells=0, CellsPercent=0, Tmax=6000, UnlimitedTmax=304.21216
limitTemperature=limitT, Type=Lower, LimitedCells=0, CellsPercent=0, Tmin=250, UnlimitedTmin=302.45117
limitTemperature=limitT, Type=Upper, LimitedCells=0, CellsPercent=0, Tmax=6000, UnlimitedTmax=307.71398
limitTemperature=limitT, Type=Lower, LimitedCells=0, CellsPercent=0, Tmin=250, UnlimitedTmin=310.63086
limitTemperature=limitT, Type=Upper, LimitedCells=0, CellsPercent=0, Tmax=6000, UnlimitedTmax=316.33152
DICPBiCGStab:  Solving for p_rgh, Initial residual = 0.64358597, Final residual = 0.064144985, No Iterations 28
time step continuity errors : sum local = 0.072892033, global = 0.039734449, cumulative = 0.26310048
Min/max rho:1.1205164 1.1768206
DILUPBiCGStab:  Solving for epsilon, Initial residual = 0.030073211, Final residual = 0.0013200272, No Iterations 1
DILUPBiCGStab:  Solving for k, Initial residual = 0.073159757, Final residual = 0.0010033085, No Iterations 2
ExecutionTime = 1.48 s  ClockTime = 1 s

volFieldValue fluid write:
    volAverage(fluid) of T = 300.00712

volFieldValue pcb write:
    volAverage(pcb) of T = 300.32173

volFieldValue component_0 write:
    volAverage(component_0) of T = 304.1065

volFieldValue component_1 write:
    volAverage(component_1) of T = 308.01322

volFieldValue component_2 write:
    volAverage(component_2) of T = 303.61433

volFieldValue component_3 write:
    volAverage(component_3) of T = 306.44809

volFieldValue component_4 write:
    volAverage(component_4) of T = 313.11643

Time = 16


Solving for fluid region fluid
DILUPBiCGStab:  Solving for Ux, Initial residual = 0.040795811, Final residual = 0.0011297459, No Iterations 2
DILUPBiCGStab:  Solving for Uy, Initial residual = 0.047814339, Final residual = 0.0010721254, No Iterations 2

Solving energy coupled regions
Using lduPrimitiveAssembly: lduAssembly456789
DILUPBiCGStab:  Solving for h, Initial residual = 0.0064468154, Final residual = 0.00020471896, No Iterations 1
limitTemperature=limitT, Type=Lower, LimitedCells=0, CellsPercent=0, Tmin=250, UnlimitedTmin=299.98707
limitTemperature=limitT, Type=Upper, LimitedCells=0, CellsPercent=0, Tmax=6000, UnlimitedTmax=300.73605
limitTemperature=limitT, Type=Lower, LimitedCells=0, CellsPercent=0, Tmin=250, UnlimitedTmin=299.98765
limitTemperature=limitT, Type=Upper, LimitedCells=0, CellsPercent=0, Tmax=6000, UnlimitedTmax=303.72676
limitTemperature=limitT, Type=Lower, LimitedCells=0, CellsPercent=0, Tmin=250, UnlimitedTmin=302.82535
limitTemperature=limitT, Type=Upper, LimitedCells=0, CellsPercent=0, Tmax=6000, UnlimitedTmax=304.72611
limitTemperature=limitT, Type=Lower, LimitedCells=0, CellsPercent=0, Tmin=250, UnlimitedTmin=302.13292
limitTemperature=limitT, Type=Upper, LimitedCells=0, CellsPercent=0, Tmax=6000, UnlimitedTmax=311.70006
limitTemperature=limitT, Type=Lower, LimitedCells=0, CellsPercent=0, Tmin=250, UnlimitedTmin=301.68638
limitTemperature=limitT, Type=Upper, LimitedCells=0, CellsPercent=0, Tmax=6000, UnlimitedTmax=304.46097
limitTemperature=limitT, Type=Lower, LimitedCells=0, CellsPercent=0, Tmin=250, UnlimitedTmin=302.4501
limitTemperature=limitT, Type=Upper, LimitedCells=0, CellsPercent=0, Tmax=6000, UnlimitedTmax=308.16477
limitTemperature=limitT, Type=Lower, LimitedCells=0, CellsPercent=0, Tmin=250, UnlimitedTmin=300.82755
limitTemperature=limitT, Type=Upper, LimitedCells=0, CellsPercent=0, Tmax=6000, UnlimitedTmax=315.96343
DICPBiCGStab:  Solving for p_rgh, Initial residual = 0.630556, Final residual = 0.059847514, No Iterations 34
time step continuity errors : sum local = 0.07316208, global = 0.013819147, cumulative = 0.27691963
Min/max rho:1.1222203 1.1767545
DILUPBiCGStab:  Solving for epsilon, Initial residual = 0.025655808, Final residual = 0.0011395197, No Iterations 1
DILUPBiCGStab:  Solving for k, Initial residual = 0.066680144, Final residual = 0.00086932406, No Iterations 2
ExecutionTime = 1.53 s  ClockTime = 1 s

volFieldValue fluid write:
    volAverage(fluid) of T = 300.00777

volFieldValue pcb write:
    volAverage(pcb) of T = 300.35527

volFieldValue component_0 write:
    volAverage(component_0) of T = 304.33075

volFieldValue component_1 write:
    volAverage(component_1) of T = 308.38146

volFieldValue component_2 write:
    volAverage(component_2) of T = 303.80393

volFieldValue component_3 write:
    volAverage(component_3) of T = 306.77546

volFieldValue component_4 write:
    volAverage(component_4) of T = 311.41484

Time = 17


Solving for fluid region fluid
DILUPBiCGStab:  Solving for Ux, Initial residual = 0.057155413, Final residual = 0.0012152313, No Iterations 2
DILUPBiCGStab:  Solving for Uy, Initial residual = 0.043599843, Final residual = 0.0010109255, No Iterations 2

Solving energy coupled regions
Using lduPrimitiveAssembly: lduAssembly456789
DILUPBiCGStab:  Solving for h, Initial residual = 0.0066794961, Final residual = 0.00029884577, No Iterations 1
limitTemperature=limitT, Type=Lower, LimitedCells=0, CellsPercent=0, Tmin=250, UnlimitedTmin=299.98835
limitTemperature=limitT, Type=Upper, LimitedCells=0, CellsPercent=0, Tmax=6000, UnlimitedTmax=300.74963
limitTemperature=limitT, Type=Lower, LimitedCells=0, CellsPercent=0, Tmin=250, UnlimitedTmin=299.9901
limitTemperature=limitT, Type=Upper, LimitedCells=0, CellsPercent=0, Tmax=6000, UnlimitedTmax=303.93172
limitTemperature=limitT, Type=Lower, LimitedCells=0, CellsPercent=0, Tmin=250, UnlimitedTmin=302.94812
limitTemperature=limitT, Type=Upper, LimitedCells=0, CellsPercent=0, Tmax=6000, UnlimitedTmax=305.00255
limitTemperature=limitT, Type=Lower, LimitedCells=0, CellsPercent=0, Tmin=250, UnlimitedTmin=302.50084
limitTemperature=limitT, Type=Upper, LimitedCells=0, CellsPercent=0, Tmax=6000, UnlimitedTmax=312.29626
limitTemperature=limitT, Type=Lower, LimitedCells=0, CellsPercent=0, Tmin=250, UnlimitedTmin=301.6162
limitTemperature=limitT, Type=Upper, LimitedCells=0, CellsPercent=0, Tmax=6000, UnlimitedTmax=304.70323
limitTemperature=limitT, Type=Lower, LimitedCells=0, CellsPercent=0, Tmin=250, UnlimitedTmin=302.40158
limitTemperature=limitT, Type=Upper, LimitedCells=0, CellsPercent=0, Tmax=6000, UnlimitedTmax=308.60539
limitTemperature=limitT, Type=Lower, LimitedCells=0, CellsPercent=0, Tmin=250, UnlimitedTmin=300.26313
limitTemperature=limitT, Type=Upper, LimitedCells=0, CellsPercent=0, Tmax=6000, UnlimitedTmax=315.23887
DICPBiCGStab:  Solving for p_rgh, Initial residual = 0.49998376, Final residual = 0.049969881, No Iterations 16
time step continuity errors : sum local = 0.068005559, global = 0.018072074, cumulative = 0.2949917
Min/max rho:1.1214352 1.1767326
DILUPBiCGStab:  Solving for epsilon, Initial residual = 0.022484921, Final residual = 0.0009908329, No Iterations 1
DILUPBiCGStab:  Solving for k, Initial residual = 0.058464664, Final residual = 0.0011093466, No Iterations 2
ExecutionTime = 1.61 s  ClockTime = 1 s

volFieldValue fluid write:
    volAverage(fluid) of T = 300.0084

volFieldValue pcb write:
    volAverage(pcb) of T = 300.39042

volFieldValue component_0 write:
    volAverage(component_0) of T = 304.5421

volFieldValue component_1 write:
    volAverage(component_1) of T = 308.7379

volFieldValue component_2 write:
    volAverage(component_2) of T = 303.98359

volFieldValue component_3 write:
    volAverage(component_3) of T = 307.08319

volFieldValue component_4 write:
    volAverage(component_4) of T = 311.13983

Time = 18


Solving for fluid region fluid
DILUPBiCGStab:  Solving for Ux, Initial residual = 0.058213669, Final residual = 0.0011654754, No Iterations 2
DILUPBiCGStab:  Solving for Uy, Initial residual = 0.051245679, Final residual = 0.0011345751, No Iterations 2

Solving energy coupled regions
Using lduPrimitiveAssembly: lduAssembly456789
DILUPBiCGStab:  Solving for h, Initial residual = 0.0063684731, Final residual = 0.00022027182, No Iterations 1
limitTemperature=limitT, Type=Lower, LimitedCells=0, CellsPercent=0, Tmin=250, UnlimitedTmin=299.98823
limitTemperature=limitT, Type=Upper, LimitedCells=0, CellsPercent=0, Tmax=6000, UnlimitedTmax=300.95416
limitTemperature=limitT, Type=Lower, LimitedCells=0, CellsPercent=0, Tmin=250, UnlimitedTmin=299.99029
limitTemperature=limitT, Type=Upper, LimitedCells=0, CellsPercent=0, Tmax=6000, UnlimitedTmax=304.06324
limitTemperature=limitT, Type=Lower, LimitedCells=0, CellsPercent=0, Tmin=250, UnlimitedTmin=303.07556
limitTemperature=limitT, Type=Upper, LimitedCells=0, CellsPercent=0, Tmax=6000, UnlimitedTmax=305.2725
limitTemperature=limitT, Type=Lower, LimitedCells=0, CellsPercent=0, Tmin=250, UnlimitedTmin=302.9928
limitTemperature=limitT, Type=Upper, LimitedCells=0, CellsPercent=0, Tmax=6000, UnlimitedTmax=312.8677
limitTemperature=limitT, Type=Lower, LimitedCells=0, CellsPercent=0, Tmin=250, UnlimitedTmin=301.52881
limitTemperature=limitT, Type=Upper, LimitedCells=0, CellsPercent=0, Tmax=6000, UnlimitedTmax=304.93797
limitTemperature=limitT, Type=Lower, LimitedCells=0, CellsPercent=0, Tmin=250, UnlimitedTmin=302.30353
limitTemperature=limitT, Type=Upper, LimitedCells=0, CellsPercent=0, Tmax=6000, UnlimitedTmax=309.03267
limitTemperature=limitT, Type=Lower, LimitedCells=0, CellsPercent=0, Tmin=250, UnlimitedTmin=308.32778
limitTemperature=limitT, Type=Upper, LimitedCells=0, CellsPercent=0, Tmax=6000, UnlimitedTmax=313.61492
DICPBiCGStab:  Solving for p_rgh, Initial residual = 0.4285652, Final residual = 0.036999539, No Iterations 17
time step continuity errors : sum local = 0.04741193, global = 0.0019750616, cumulative = 0.29696677
Min/max rho:1.1235981 1.1767517
DILUPBiCGStab:  Solving for epsilon, Initial residual = 0.019471318, Final residual = 0.00078963157, No Iterations 1
DILUPBiCGStab:  Solving for k, Initial residual = 0.058866717, Final residual = 0.00098256566, No Iterations 2
ExecutionTime = 1.69 s  ClockTime = 1 s

volFieldValue fluid write:
    volAverage(fluid) of T = 300.00911

volFieldValue pcb write:
    volAverage(pcb) of T = 300.42672

volFieldValue component_0 write:
    volAverage(component_0) of T = 304.75547

volFieldValue component_1 write:
    volAverage(component_1) of T = 309.10482

volFieldValue component_2 write:
    volAverage(component_2) of T = 304.16274

volFieldValue component_3 write:
    volAverage(component_3) of T = 307.38288

volFieldValue component_4 write:
    volAverage(component_4) of T = 311.61261

Time = 19


Solving for fluid region fluid
DILUPBiCGStab:  Solving for Ux, Initial residual = 0.055518942, Final residual = 0.0010562516, No Iterations 2
DILUPBiCGStab:  Solving for Uy, Initial residual = 0.063027208, Final residual = 0.0012919646, No Iterations 2

Solving energy coupled regions
Using lduPrimitiveAssembly: lduAssembly456789
DILUPBiCGStab:  Solving for h, Initial residual = 0.0061706046, Final residual = 0.00020391409, No Iterations 1
limitTemperature=limitT, Type=Lower, LimitedCells=0, CellsPercent=0, Tmin=250, UnlimitedTmin=299.98778
limitTemperature=limitT, Type=Upper, LimitedCells=0, CellsPercent=0, Tmax=6000, UnlimitedTmax=300.94364
limitTemperature=limitT, Type=Lower, LimitedCells=0, CellsPercent=0, Tmin=250, UnlimitedTmin=299.99001
limitTemperature=limitT, Type=Upper, LimitedCells=0, CellsPercent=0, Tmax=6000, UnlimitedTmax=304.13793
limitTemperature=limitT, Type=Lower, LimitedCells=0, CellsPercent=0, Tmin=250, UnlimitedTmin=303.20964
limitTemperature=limitT, Type=Upper, LimitedCells=0, CellsPercent=0, Tmax=6000, UnlimitedTmax=305.54198
limitTemperature=limitT, Type=Lower, LimitedCells=0, CellsPercent=0, Tmin=250, UnlimitedTmin=303.03856
limitTemperature=limitT, Type=Upper, LimitedCells=0, CellsPercent=0, Tmax=6000, UnlimitedTmax=313.4254
limitTemperature=limitT, Type=Lower, LimitedCells=0, CellsPercent=0, Tmin=250, UnlimitedTmin=301.50087
limitTemperature=limitT, Type=Upper, LimitedCells=0, CellsPercent=0, Tmax=6000, UnlimitedTmax=305.16662
limitTemperature=limitT, Type=Lower, LimitedCells=0, CellsPercent=0, Tmin=250, UnlimitedTmin=302.19261
limitTemperature=limitT, Type=Upper, LimitedCells=0, CellsPercent=0, Tmax=6000, UnlimitedTmax=309.45305
limitTemperature=limitT, Type=Lower, LimitedCells=0, CellsPercent=0, Tmin=250, UnlimitedTmin=310.2763
limitTemperature=limitT, Type=Upper, LimitedCells=0, CellsPercent=0, Tmax=6000, UnlimitedTmax=314.90494
DICPBiCGStab:  Solving for p_rgh, Initial residual = 0.408426, Final residual = 0.040239955, No Iterations 15
time step continuity errors : sum local = 0.050387159, global = -0.015059134, cumulative = 0.28190763
Min/max rho:1.1273049 1.1767669
DILUPBiCGStab:  Solving for epsilon, Initial residual = 0.019957075, Final residual = 0.00073402066, No Iterations 1
DILUPBiCGStab:  Solving for k, Initial residual = 0.050611122, Final residual = 0.00064361393, No Iterations 2
ExecutionTime = 1.77 s  ClockTime = 2 s

volFieldValue fluid write:
    volAverage(fluid) of T = 300.00993

volFieldValue pcb write:
    volAverage(pcb) of T = 300.46441

volFieldValue component_0 write:
    volAverage(component_0) of T = 304.97165

volFieldValue component_1 write:
    volAverage(component_1) of T = 309.46563

volFieldValue component_2 write:
    volAverage(component_2) of T = 304.34189

volFieldValue component_3 write:
    volAverage(component_3) of T = 307.67602

volFieldValue component_4 write:
    volAverage(component_4) of T = 312.01265

Time = 20


Solving for fluid region fluid
DILUPBiCGStab:  Solving for Ux, Initial residual = 0.04961365, Final residual = 0.0010638776, No Iterations 2
DILUPBiCGStab:  Solving for Uy, Initial residual = 0.059881037, Final residual = 0.0011753712, No Iterations 2

Solving energy coupled regions
Using lduPrimitiveAssembly: lduAssembly456789
DILUPBiCGStab:  Solving for h, Initial residual = 0.0062817052, Final residual = 0.0002548987, No Iterations 1
limitTemperature=limitT, Type=Lower, LimitedCells=0, CellsPercent=0, Tmin=250, UnlimitedTmin=299.98713
limitTemperature=limitT, Type=Upper, LimitedCells=0, CellsPercent=0, Tmax=6000, UnlimitedTmax=301.10564
limitTemperature=limitT, Type=Lower, LimitedCells=0, CellsPercent=0, Tmin=250, UnlimitedTmin=299.98947
limitTemperature=limitT, Type=Upper, LimitedCells=0, CellsPercent=0, Tmax=6000, UnlimitedTmax=304.31832
limitTemperature=limitT, Type=Lower, LimitedCells=0, CellsPercent=0, Tmin=250, UnlimitedTmin=303.34138
limitTemperature=limitT, Type=Upper, LimitedCells=0, CellsPercent=0, Tmax=6000, UnlimitedTmax=305.80671
limitTemperature=limitT, Type=Lower, LimitedCells=0, CellsPercent=0, Tmin=250, UnlimitedTmin=303.05627
limitTemperature=limitT, Type=Upper, LimitedCells=0, CellsPercent=0, Tmax=6000, UnlimitedTmax=313.9665
limitTemperature=limitT, Type=Lower, LimitedCells=0, CellsPercent=0, Tmin=250, UnlimitedTmin=301.60263
limitTemperature=limitT, Type=Upper, LimitedCells=0, CellsPercent=0, Tmax=6000, UnlimitedTmax=305.38786
limitTemperature=limitT, Type=Lower, LimitedCells=0, CellsPercent=0, Tmin=250, UnlimitedTmin=302.07027
limitTemperature=limitT, Type=Upper, LimitedCells=0, CellsPercent=0, Tmax=6000, UnlimitedTmax=309.86531
limitTemperature=limitT, Type=Lower, LimitedCells=0, CellsPercent=0, Tmin=250, UnlimitedTmin=310.49196
limitTemperature=limitT, Type=Upper, LimitedCells=0, CellsPercent=0, Tmax=6000, UnlimitedTmax=313.50652
DICPBiCGStab:  Solving for p_rgh, Initial residual = 0.39466852, Final residual = 0.039072774, No Iterations 28
time step continuity errors : sum local = 0.050931713, global = -0.02207542, cumulative = 0.25983221
Min/max rho:1.128658 1.1767758
DILUPBiCGStab:  Solving for epsilon, Initial residual = 0.01898077, Final residual = 0.00073872481, No Iterations 1
DILUPBiCGStab:  Solving for k, Initial residual = 0.046489881, Final residual = 0.00060956198, No Iterations 2
ExecutionTime = 1.81 s  ClockTime = 2 s

volFieldValue fluid write:
    volAverage(fluid) of T = 300.01059

volFieldValue pcb write:
    volAverage(pcb) of T = 300.50355

volFieldValue component_0 write:
    volAverage(component_0) of T = 305.18275

volFieldValue component_1 write:
    volAverage(component_1) of T = 309.7729

volFieldValue component_2 write:
    volAverage(component_2) of T = 304.51719

volFieldValue component_3 write:
    volAverage(component_3) of T = 307.96667

volFieldValue component_4 write:
    volAverage(component_4) of T = 311.62059

Time = 21


Solving for fluid region fluid
DILUPBiCGStab:  Solving for Ux, Initial residual = 0.044301137, Final residual = 0.00089349221, No Iterations 2
DILUPBiCGStab:  Solving for Uy, Initial residual = 0.049580253, Final residual = 0.0010594027, No Iterations 2

Solving energy coupled regions
Using lduPrimitiveAssembly: lduAssembly456789
DILUPBiCGStab:  Solving for h, Initial residual = 0.0059549809, Final residual = 0.00016041682, No Iterations 1
limitTemperature=limitT, Type=Lower, LimitedCells=0, CellsPercent=0, Tmin=250, UnlimitedTmin=299.98686
limitTemperature=limitT, Type=Upper, LimitedCells=0, CellsPercent=0, Tmax=6000, UnlimitedTmax=300.95844
limitTemperature=limitT, Type=Lower, LimitedCells=0, CellsPercent=0, Tmin=250, UnlimitedTmin=299.98906
limitTemperature=limitT, Type=Upper, LimitedCells=0, CellsPercent=0, Tmax=6000, UnlimitedTmax=304.64174
limitTemperature=limitT, Type=Lower, LimitedCells=0, CellsPercent=0, Tmin=250, UnlimitedTmin=303.46757
limitTemperature=limitT, Type=Upper, LimitedCells=0, CellsPercent=0, Tmax=6000, UnlimitedTmax=306.06461
limitTemperature=limitT, Type=Lower, LimitedCells=0, CellsPercent=0, Tmin=250, UnlimitedTmin=303.10707
limitTemperature=limitT, Type=Upper, LimitedCells=0, CellsPercent=0, Tmax=6000, UnlimitedTmax=314.48799
limitTemperature=limitT, Type=Lower, LimitedCells=0, CellsPercent=0, Tmin=250, UnlimitedTmin=301.73644
limitTemperature=limitT, Type=Upper, LimitedCells=0, CellsPercent=0, Tmax=6000, UnlimitedTmax=305.60203
limitTemperature=limitT, Type=Lower, LimitedCells=0, CellsPercent=0, Tmin=250, UnlimitedTmin=302.16634
limitTemperature=limitT, Type=Upper, LimitedCells=0, CellsPercent=0, Tmax=6000, UnlimitedTmax=310.26701
limitTemperature=limitT, Type=Lower, LimitedCells=0, CellsPercent=0, Tmin=250, UnlimitedTmin=302.51393
limitTemperature=limitT, Type=Upper, LimitedCells=0, CellsPercent=0, Tmax=6000, UnlimitedTmax=313.68845
DICPBiCGStab:  Solving for p_rgh, Initial residual = 0.42556752, Final residual = 0.040806746, No Iterations 22
time step continuity errors : sum local = 0.056786058, global = -0.028673723, cumulative = 0.23115849
Min/max rho:1.1271833 1.1767819
DILUPBiCGStab:  Solving for epsilon, Initial residual = 0.018855807, Final residual = 0.00070944064, No Iterations 1
DILUPBiCGStab:  Solving for k, Initial residual = 0.046564292, Final residual = 0.00058314864, No Iterations 2
ExecutionTime = 1.9 s  ClockTime = 2 s

volFieldValue fluid write:
    volAverage(fluid) of T = 300.01135

volFieldValue pcb write:
    volAverage(pcb) of T = 300.54267

volFieldValue component_0 write:
    volAverage(component_0) of T = 305.39498

volFieldValue component_1 write:
    volAverage(component_1) of T = 310.06669

volFieldValue component_2 write:
    volAverage(component_2) of T = 304.69283

volFieldValue component_3 write:
    volAverage(component_3) of T = 308.26069

volFieldValue component_4 write:
    volAverage(component_4) of T = 311.1745

Time = 22


Solving for fluid region fluid
DILUPBiCGStab:  Solving for Ux, Initial residual = 0.040545809, Final residual = 0.00093999334, No Iterations 2
DILUPBiCGStab:  Solving for Uy, Initial residual = 0.044123007, Final residual = 0.0010095799, No Iterations 2

Solving energy coupled regions
Using lduPrimitiveAssembly: lduAssembly456789
DILUPBiCGStab:  Solving for h, Initial residual = 0.0060298239, Final residual = 0.00020969486, No Iterations 1
limitTemperature=limitT, Type=Lower, LimitedCells=0, CellsPercent=0, Tmin=250, UnlimitedTmin=299.98706
limitTemperature=limitT, Type=Upper, LimitedCells=0, CellsPercent=0, Tmax=6000, UnlimitedTmax=301.01597
limitTemperature=limitT, Type=Lower, LimitedCells=0, CellsPercent=0, Tmin=250, UnlimitedTmin=299.98919
limitTemperature=limitT, Type=Upper, LimitedCells=0, CellsPercent=0, Tmax=6000, UnlimitedTmax=304.96656
limitTemperature=limitT, Type=Lower, LimitedCells=0, CellsPercent=0, Tmin=250, UnlimitedTmin=303.59282
limitTemperature=limitT, Type=Upper, LimitedCells=0, CellsPercent=0, Tmax=6000, UnlimitedTmax=306.32143
limitTemperature=limitT, Type=Lower, LimitedCells=0, CellsPercent=0, Tmin=250, UnlimitedTmin=303.21418
limitTemperature=limitT, Type=Upper, LimitedCells=0, CellsPercent=0, Tmax=6000, UnlimitedTmax=315.00012
limitTemperature=limitT, Type=Lower, LimitedCells=0, CellsPercent=0, Tmin=250, UnlimitedTmin=301.87888
limitTemperature=limitT, Type=Upper, LimitedCells=0, CellsPercent=0, Tmax=6000, UnlimitedTmax=305.81525
limitTemperature=limitT, Type=Lower, LimitedCells=0, CellsPercent=0, Tmin=250, UnlimitedTmin=302.38084
limitTemperature=limitT, Type=Upper, LimitedCells=0, CellsPercent=0, Tmax=6000, UnlimitedTmax=310.66477
limitTemperature=limitT, Type=Lower, LimitedCells=0, CellsPercent=0, Tmin=250, UnlimitedTmin=300.44879
limitTemperature=limitT, Type=Upper, LimitedCells=0, CellsPercent=0, Tmax=6000, UnlimitedTmax=314.43953
DICPBiCGStab:  Solving for p_rgh, Initial residual = 0.41652431, Final residual = 0.035381773, No Iterations 23
time step continuity errors : sum local = 0.049072664, global = -0.024324738, cumulative = 0.20683375
Min/max rho:1.1251575 1.1767863
DILUPBiCGStab:  Solving for epsilon, Initial residual = 0.018989626, Final residual = 0.00066310339, No Iterations 1
bounding epsilon, min: -0.097777671 max: 13.758315 average: 0.20431277
DILUPBiCGStab:  Solving for k, Initial residual = 0.044235324, Final residual = 0.00053811445, No Iterations 2
ExecutionTime = 1.98 s  ClockTime = 2 s

volFieldValue fluid write:
    volAverage(fluid) of T = 300.01206

volFieldValue pcb write:
    volAverage(pcb) of T = 300.58245

volFieldValue component_0 write:
    volAverage(component_0) of T = 305.60028

volFieldValue component_1 write:
    volAverage(component_1) of T = 310.35864

volFieldValue component_2 write:
    volAverage(component_2) of T = 304.8579

volFieldValue component_3 write:
    volAverage(component_3) of T = 308.53612

volFieldValue component_4 write:
    volAverage(component_4) of T = 311.45999

Time = 23


Solving for fluid region fluid
DILUPBiCGStab:  Solving for Ux, Initial residual = 0.038656342, Final residual = 0.00086272258, No Iterations 2
DILUPBiCGStab:  Solving for Uy, Initial residual = 0.048697726, Final residual = 0.0012019993, No Iterations 2

Solving energy coupled regions
Using lduPrimitiveAssembly: lduAssembly456789
DILUPBiCGStab:  Solving for h, Initial residual = 0.0060500133, Final residual = 0.00023747455, No Iterations 1
limitTemperature=limitT, Type=Lower, LimitedCells=0, CellsPercent=0, Tmin=250, UnlimitedTmin=299.98739
limitTemperature=limitT, Type=Upper, LimitedCells=0, CellsPercent=0, Tmax=6000, UnlimitedTmax=301.15011
limitTemperature=limitT, Type=Lower, LimitedCells=0, CellsPercent=0, Tmin=250, UnlimitedTmin=299.98973
limitTemperature=limitT, Type=Upper, LimitedCells=0, CellsPercent=0, Tmax=6000, UnlimitedTmax=305.29346
limitTemperature=limitT, Type=Lower, LimitedCells=0, CellsPercent=0, Tmin=250, UnlimitedTmin=303.71723
limitTemperature=limitT, Type=Upper, LimitedCells=0, CellsPercent=0, Tmax=6000, UnlimitedTmax=306.57278
limitTemperature=limitT, Type=Lower, LimitedCells=0, CellsPercent=0, Tmin=250, UnlimitedTmin=303.12058
limitTemperature=limitT, Type=Upper, LimitedCells=0, CellsPercent=0, Tmax=6000, UnlimitedTmax=315.49255
limitTemperature=limitT, Type=Lower, LimitedCells=0, CellsPercent=0, Tmin=250, UnlimitedTmin=301.95845
limitTemperature=limitT, Type=Upper, LimitedCells=0, CellsPercent=0, Tmax=6000, UnlimitedTmax=306.01987
limitTemperature=limitT, Type=Lower, LimitedCells=0, CellsPercent=0, Tmin=250, UnlimitedTmin=302.51067
limitTemperature=limitT, Type=Upper, LimitedCells=0, CellsPercent=0, Tmax=6000, UnlimitedTmax=311.05217
limitTemperature=limitT, Type=Lower, LimitedCells=0, CellsPercent=0, Tmin=250, UnlimitedTmin=305.78145
limitTemperature=limitT, Type=Upper, LimitedCells=0, CellsPercent=0, Tmax=6000, UnlimitedTmax=314.14961
DICPBiCGStab:  Solving for p_rgh, Initial residual = 0.45039696, Final residual = 0.044645412, No Iterations 34
time step continuity errors : sum local = 0.053770352, global = -0.029927186, cumulative = 0.17690656
Min/max rho:1.1246987 1.1767874
DILUPBiCGStab:  Solving for epsilon, Initial residual = 0.014945938, Final residual = 0.0005397364, No Iterations 1
bounding epsilon, min: -0.22727195 max: 16.594556 average: 0.20699953
DILUPBiCGStab:  Solving for k, Initial residual = 0.048458885, Final residual = 0.0023739053, No Iterations 1
bounding k, min: -0.012805699 max: 2.45113 average: 0.06594317
ExecutionTime = 2.08 s  ClockTime = 2 s

volFieldValue fluid write:
    volAverage(fluid) of T = 300.01281

volFieldValue pcb write:
    volAverage(pcb) of T = 300.62272

volFieldValue component_0 write:
    volAverage(component_0) of T = 305.80135

volFieldValue component_1 write:
    volAverage(component_1) of T = 310.68568

volFieldValue component_2 write:
    volAverage(component_2) of T = 305.01323

volFieldValue component_3 write:
    volAverage(component_3) of T = 308.78923

volFieldValue component_4 write:
    volAverage(component_4) of T = 312.4804

Time = 24


Solving for fluid region fluid
DILUPBiCGStab:  Solving for Ux, Initial residual = 0.040914764, Final residual = 0.00095838803, No Iterations 2
DILUPBiCGStab:  Solving for Uy, Initial residual = 0.054841253, Final residual = 0.001620306, No Iterations 2

Solving energy coupled regions
Using lduPrimitiveAssembly: lduAssembly456789
DILUPBiCGStab:  Solving for h, Initial residual = 0.0061442863, Final residual = 0.00024088632, No Iterations 1
limitTemperature=limitT, Type=Lower, LimitedCells=0, CellsPercent=0, Tmin=250, UnlimitedTmin=299.98804
limitTemperature=limitT, Type=Upper, LimitedCells=0, CellsPercent=0, Tmax=6000, UnlimitedTmax=301.13171
limitTemperature=limitT, Type=Lower, LimitedCells=0, CellsPercent=0, Tmin=250, UnlimitedTmin=299.99052
limitTemperature=limitT, Type=Upper, LimitedCells=0, CellsPercent=0, Tmax=6000, UnlimitedTmax=305.62435
limitTemperature=limitT, Type=Lower, LimitedCells=0, CellsPercent=0, Tmin=250, UnlimitedTmin=303.84077
limitTemperature=limitT, Type=Upper, LimitedCells=0, CellsPercent=0, Tmax=6000, UnlimitedTmax=306.82023
limitTemperature=limitT, Type=Lower, LimitedCells=0, CellsPercent=0, Tmin=250, UnlimitedTmin=303.06257
limitTemperature=limitT, Type=Upper, LimitedCells=0, CellsPercent=0, Tmax=6000, UnlimitedTmax=315.96954
limitTemperature=limitT, Type=Lower, LimitedCells=0, CellsPercent=0, Tmin=250, UnlimitedTmin=302.0098
limitTemperature=limitT, Type=Upper, LimitedCells=0, CellsPercent=0, Tmax=6000, UnlimitedTmax=306.21916
limitTemperature=limitT, Type=Lower, LimitedCells=0, CellsPercent=0, Tmin=250, UnlimitedTmin=302.34159
limitTemperature=limitT, Type=Upper, LimitedCells=0, CellsPercent=0, Tmax=6000, UnlimitedTmax=311.43092
limitTemperature=limitT, Type=Lower, LimitedCells=0, CellsPercent=0, Tmin=250, UnlimitedTmin=311.65685
limitTemperature=limitT, Type=Upper, LimitedCells=0, CellsPercent=0, Tmax=6000, UnlimitedTmax=313.57918
DICPBiCGStab:  Solving for p_rgh, Initial residual = 0.43961708, Final residual = 0.041868602, No Iterations 31
time step continuity errors : sum local = 0.048080203, global = -0.022431757, cumulative = 0.15447481
Min/max rho:1.1255064 1.1767834
DILUPBiCGStab:  Solving for epsilon, Initial residual = 0.017193862, Final residual = 0.00057503535, No Iterations 1
bounding epsilon, min: -0.095379303 max: 23.338582 average: 0.2088474
DILUPBiCGStab:  Solving for k, Initial residual = 0.046490128, Final residual = 0.0020987439, No Iterations 1
ExecutionTime = 2.13 s  ClockTime = 2 s

volFieldValue fluid write:
    volAverage(fluid) of T = 300.0135

volFieldValue pcb write:
    volAverage(pcb) of T = 300.6623

volFieldValue component_0 write:
    volAverage(component_0) of T = 305.99823

volFieldValue component_1 write:
    volAverage(component_1) of T = 311.01

volFieldValue component_2 write:
    volAverage(component_2) of T = 305.16323

volFieldValue component_3 write:
    volAverage(component_3) of T = 309.02321

volFieldValue component_4 write:
    volAverage(component_4) of T = 312.83003

Time = 25


Solving for fluid region fluid
DILUPBiCGStab:  Solving for Ux, Initial residual = 0.04726526, Final residual = 0.0012113501, No Iterations 2
DILUPBiCGStab:  Solving for Uy, Initial residual = 0.060461329, Final residual = 0.0015098776, No Iterations 2

Solving energy coupled regions
Using lduPrimitiveAssembly: lduAssembly456789
DILUPBiCGStab:  Solving for h, Initial residual = 0.0061970945, Final residual = 0.00028066426, No Iterations 1
limitTemperature=limitT, Type=Lower, LimitedCells=0, CellsPercent=0, Tmin=250, UnlimitedTmin=299.98765
limitTemperature=limitT, Type=Upper, LimitedCells=0, CellsPercent=0, Tmax=6000, UnlimitedTmax=301.03581
[...]
DILUPBiCGStab:  Solving for k, Initial residual = 8.2769933e-12, Final residual = 8.2769933e-12, No Iterations 0
ExecutionTime = 8.48 s  ClockTime = 8 s

volFieldValue fluid write:
    volAverage(fluid) of T = 1315.5871

volFieldValue pcb write:
    volAverage(pcb) of T = 576.59333

volFieldValue component_0 write:
    volAverage(component_0) of T = 373.55551

volFieldValue component_1 write:
    volAverage(component_1) of T = 458.36253

volFieldValue component_2 write:
    volAverage(component_2) of T = 4689.2695

volFieldValue component_3 write:
    volAverage(component_3) of T = 1438.3335

volFieldValue component_4 write:
    volAverage(component_4) of T = 1900.9215

Time = 122


Solving for fluid region fluid
DILUPBiCGStab:  Solving for Ux, Initial residual = 0.42013255, Final residual = 0.0082814953, No Iterations 3
DILUPBiCGStab:  Solving for Uy, Initial residual = 0.3534029, Final residual = 0.0050131518, No Iterations 3

Solving energy coupled regions
Using lduPrimitiveAssembly: lduAssembly456789
DILUPBiCGStab:  Solving for h, Initial residual = 1, Final residual = 0.044186151, No Iterations 7
limitTemperature=limitT, Type=Lower, LimitedCells=2972, CellsPercent=31.89, Tmin=250, UnlimitedTmin=250
limitTemperature=limitT, Type=Upper, LimitedCells=2700, CellsPercent=28.97, Tmax=6000, UnlimitedTmax=6000
limitTemperature=limitT, Type=Lower, LimitedCells=514, CellsPercent=75.15, Tmin=250, UnlimitedTmin=250
limitTemperature=limitT, Type=Upper, LimitedCells=117, CellsPercent=17.11, Tmax=6000, UnlimitedTmax=6000
limitTemperature=limitT, Type=Lower, LimitedCells=120, CellsPercent=100, Tmin=250, UnlimitedTmin=250
limitTemperature=limitT, Type=Upper, LimitedCells=0, CellsPercent=0, Tmax=6000, UnlimitedTmax=2809.8623
limitTemperature=limitT, Type=Lower, LimitedCells=40, CellsPercent=39.22, Tmin=250, UnlimitedTmin=250
limitTemperature=limitT, Type=Upper, LimitedCells=62, CellsPercent=60.78, Tmax=6000, UnlimitedTmax=1640.4327
limitTemperature=limitT, Type=Lower, LimitedCells=103, CellsPercent=52.55, Tmin=250, UnlimitedTmin=285.47327
limitTemperature=limitT, Type=Upper, LimitedCells=93, CellsPercent=47.45, Tmax=6000, UnlimitedTmax=6000
limitTemperature=limitT, Type=Lower, LimitedCells=223, CellsPercent=97.81, Tmin=250, UnlimitedTmin=250
limitTemperature=limitT, Type=Upper, LimitedCells=5, CellsPercent=2.19, Tmax=6000, UnlimitedTmax=6000
limitTemperature=limitT, Type=Lower, LimitedCells=11, CellsPercent=100, Tmin=250, UnlimitedTmin=250
limitTemperature=limitT, Type=Upper, LimitedCells=0, CellsPercent=0, Tmax=6000, UnlimitedTmax=6000
DICPBiCGStab:  Solving for p_rgh, Initial residual = 0.90282603, Final residual = 0.089926494, No Iterations 14
time step continuity errors : sum local = 49082937, global = -654760.34, cumulative = -655907.15
Min/max rho:0.047351027 202393.83
DILUPBiCGStab:  Solving for epsilon, Initial residual = 0.70125197, Final residual = 0.034621883, No Iterations 1
bounding epsilon, min: -383951.9 max: 6.3628236e+09 average: 6824337.8
DILUPBiCGStab:  Solving for k, Initial residual = 1.0052629e-06, Final residual = 1.882765e-07, No Iterations 1
bounding k, min: -1.5337247 max: 7191613.7 average: 6662.8691
ExecutionTime = 8.51 s  ClockTime = 8 s

volFieldValue fluid write:
    volAverage(fluid) of T = 2131.0114

volFieldValue pcb write:
    volAverage(pcb) of T = 1343.992

volFieldValue component_0 write:
    volAverage(component_0) of T = 250

volFieldValue component_1 write:
    volAverage(component_1) of T = 3685.9628

volFieldValue component_2 write:
    volAverage(component_2) of T = 2991.26

volFieldValue component_3 write:
    volAverage(component_3) of T = 382.35569

volFieldValue component_4 write:
    volAverage(component_4) of T = 250

Time = 123


Solving for fluid region fluid
DILUPBiCGStab:  Solving for Ux, Initial residual = 0.44520797, Final residual = 0.0051345723, No Iterations 7
DILUPBiCGStab:  Solving for Uy, Initial residual = 0.4154639, Final residual = 0.018090895, No Iterations 5

Solving energy coupled regions
Using lduPrimitiveAssembly: lduAssembly456789
DILUPBiCGStab:  Solving for h, Initial residual = 1, Final residual = 0.044243108, No Iterations 12
limitTemperature=limitT, Type=Lower, LimitedCells=6881, CellsPercent=73.83, Tmin=250, UnlimitedTmin=250
limitTemperature=limitT, Type=Upper, LimitedCells=2437, CellsPercent=26.15, Tmax=6000, UnlimitedTmax=6000
limitTemperature=limitT, Type=Lower, LimitedCells=637, CellsPercent=93.13, Tmin=250, UnlimitedTmin=250
limitTemperature=limitT, Type=Upper, LimitedCells=47, CellsPercent=6.87, Tmax=6000, UnlimitedTmax=6000
limitTemperature=limitT, Type=Lower, LimitedCells=0, CellsPercent=0, Tmin=250, UnlimitedTmin=250
limitTemperature=limitT, Type=Upper, LimitedCells=120, CellsPercent=100, Tmax=6000, UnlimitedTmax=250
limitTemperature=limitT, Type=Lower, LimitedCells=102, CellsPercent=100, Tmin=250, UnlimitedTmin=250
limitTemperature=limitT, Type=Upper, LimitedCells=0, CellsPercent=0, Tmax=6000, UnlimitedTmax=6000
limitTemperature=limitT, Type=Lower, LimitedCells=192, CellsPercent=97.96, Tmin=250, UnlimitedTmin=250
limitTemperature=limitT, Type=Upper, LimitedCells=4, CellsPercent=2.04, Tmax=6000, UnlimitedTmax=6000
limitTemperature=limitT, Type=Lower, LimitedCells=228, CellsPercent=100, Tmin=250, UnlimitedTmin=250
limitTemperature=limitT, Type=Upper, LimitedCells=0, CellsPercent=0, Tmax=6000, UnlimitedTmax=6000
limitTemperature=limitT, Type=Lower, LimitedCells=11, CellsPercent=100, Tmin=250, UnlimitedTmin=250
limitTemperature=limitT, Type=Upper, LimitedCells=0, CellsPercent=0, Tmax=6000, UnlimitedTmax=250
DICPBiCGStab:  Solving for p_rgh, Initial residual = 0.87138535, Final residual = 1.6394139, No Iterations 1000
time step continuity errors : sum local = 2.1845211e+13, global = 3.8139503e+12, cumulative = 3.8139496e+12
Min/max rho:0.023675513 1.1024156e+10
DILUPBiCGStab:  Solving for epsilon, Initial residual = 0.86187466, Final residual = 0.023627183, No Iterations 3
bounding epsilon, min: -1.9061549e+14 max: 5.6198999e+12 average: -7.7333841e+10
DILUPBiCGStab:  Solving for k, Initial residual = 0.99999962, Final residual = 0.014389711, No Iterations 1
bounding k, min: -2092.1684 max: 3.3298385e+14 average: 8.7349659e+10
ExecutionTime = 9.49 s  ClockTime = 9 s

volFieldValue fluid write:
    volAverage(fluid) of T = 1857.4931

volFieldValue pcb write:
    volAverage(pcb) of T = 660.9949

volFieldValue component_0 write:
    volAverage(component_0) of T = 6000

volFieldValue component_1 write:
    volAverage(component_1) of T = 250

volFieldValue component_2 write:
    volAverage(component_2) of T = 353.50048

volFieldValue component_3 write:
    volAverage(component_3) of T = 250

volFieldValue component_4 write:
    volAverage(component_4) of T = 250

Time = 124


Solving for fluid region fluid
DILUPBiCGStab:  Solving for Ux, Initial residual = 0.22631875, Final residual = 0.0024209932, No Iterations 4
DILUPBiCGStab:  Solving for Uy, Initial residual = 0.41720624, Final residual = 0.0064279866, No Iterations 4

Solving energy coupled regions
Using lduPrimitiveAssembly: lduAssembly456789
DILUPBiCGStab:  Solving for h, Initial residual = 1, Final residual = 0.029064588, No Iterations 13
limitTemperature=limitT, Type=Lower, LimitedCells=5897, CellsPercent=63.27, Tmin=250, UnlimitedTmin=250
limitTemperature=limitT, Type=Upper, LimitedCells=3423, CellsPercent=36.73, Tmax=6000, UnlimitedTmax=6000
limitTemperature=limitT, Type=Lower, LimitedCells=632, CellsPercent=92.4, Tmin=250, UnlimitedTmin=250
limitTemperature=limitT, Type=Upper, LimitedCells=52, CellsPercent=7.6, Tmax=6000, UnlimitedTmax=6000
limitTemperature=limitT, Type=Lower, LimitedCells=120, CellsPercent=100, Tmin=250, UnlimitedTmin=6000
limitTemperature=limitT, Type=Upper, LimitedCells=0, CellsPercent=0, Tmax=6000, UnlimitedTmax=6000
limitTemperature=limitT, Type=Lower, LimitedCells=102, CellsPercent=100, Tmin=250, UnlimitedTmin=250
limitTemperature=limitT, Type=Upper, LimitedCells=0, CellsPercent=0, Tmax=6000, UnlimitedTmax=250
limitTemperature=limitT, Type=Lower, LimitedCells=196, CellsPercent=100, Tmin=250, UnlimitedTmin=250
limitTemperature=limitT, Type=Upper, LimitedCells=0, CellsPercent=0, Tmax=6000, UnlimitedTmax=6000
limitTemperature=limitT, Type=Lower, LimitedCells=228, CellsPercent=100, Tmin=250, UnlimitedTmin=250
limitTemperature=limitT, Type=Upper, LimitedCells=0, CellsPercent=0, Tmax=6000, UnlimitedTmax=250
limitTemperature=limitT, Type=Lower, LimitedCells=0, CellsPercent=0, Tmin=250, UnlimitedTmin=250
limitTemperature=limitT, Type=Upper, LimitedCells=11, CellsPercent=100, Tmax=6000, UnlimitedTmax=250
DICPBiCGStab:  Solving for p_rgh, Initial residual = 0.99992525, Final residual = 0.034981023, No Iterations 2
time step continuity errors : sum local = 7.1424377e+18, global = 2.2974885e+11, cumulative = 4.0436985e+12
Min/max rho:0.014621542 5.0000551e+14
DILUPBiCGStab:  Solving for epsilon, Initial residual = 0.001946655, Final residual = 1.0686347e-05, No Iterations 4
bounding epsilon, min: -1.2827162e+30 max: 3.8123525e+24 average: -3.4141353e+26
DILUPBiCGStab:  Solving for k, Initial residual = 0.9974092, Final residual = 0.0022743348, No Iterations 1
bounding k, min: -4.7466748e+15 max: 1.6148675e+25 average: 2.2566601e+22
ExecutionTime = 9.58 s  ClockTime = 9 s

volFieldValue fluid write:
    volAverage(fluid) of T = 2253.8363

volFieldValue pcb write:
    volAverage(pcb) of T = 661.3023

volFieldValue component_0 write:
    volAverage(component_0) of T = 250

volFieldValue component_1 write:
    volAverage(component_1) of T = 250

volFieldValue component_2 write:
    volAverage(component_2) of T = 250

volFieldValue component_3 write:
    volAverage(component_3) of T = 250

volFieldValue component_4 write:
    volAverage(component_4) of T = 6000

Time = 125


Solving for fluid region fluid
DILUPBiCGStab:  Solving for Ux, Initial residual = 6.8545681e-05, Final residual = 1.4453802e-06, No Iterations 8
DILUPBiCGStab:  Solving for Uy, Initial residual = 3.6590951e-05, Final residual = 1.5037191e-06, No Iterations 10

Solving energy coupled regions
Using lduPrimitiveAssembly: lduAssembly456789
DILUPBiCGStab:  Solving for h, Initial residual = 1, Final residual = 0.04945032, No Iterations 21
limitTemperature=limitT, Type=Lower, LimitedCells=5799, CellsPercent=62.22, Tmin=250, UnlimitedTmin=250
limitTemperature=limitT, Type=Upper, LimitedCells=3521, CellsPercent=37.78, Tmax=6000, UnlimitedTmax=6000
limitTemperature=limitT, Type=Lower, LimitedCells=522, CellsPercent=76.32, Tmin=250, UnlimitedTmin=250
limitTemperature=limitT, Type=Upper, LimitedCells=162, CellsPercent=23.68, Tmax=6000, UnlimitedTmax=6000
limitTemperature=limitT, Type=Lower, LimitedCells=120, CellsPercent=100, Tmin=250, UnlimitedTmin=250
limitTemperature=limitT, Type=Upper, LimitedCells=0, CellsPercent=0, Tmax=6000, UnlimitedTmax=250
limitTemperature=limitT, Type=Lower, LimitedCells=0, CellsPercent=0, Tmin=250, UnlimitedTmin=250
limitTemperature=limitT, Type=Upper, LimitedCells=102, CellsPercent=100, Tmax=6000, UnlimitedTmax=250
limitTemperature=limitT, Type=Lower, LimitedCells=196, CellsPercent=100, Tmin=250, UnlimitedTmin=250
limitTemperature=limitT, Type=Upper, LimitedCells=0, CellsPercent=0, Tmax=6000, UnlimitedTmax=250
limitTemperature=limitT, Type=Lower, LimitedCells=228, CellsPercent=100, Tmin=250, UnlimitedTmin=250
limitTemperature=limitT, Type=Upper, LimitedCells=0, CellsPercent=0, Tmax=6000, UnlimitedTmax=250
limitTemperature=limitT, Type=Lower, LimitedCells=11, CellsPercent=100, Tmin=250, UnlimitedTmin=6000
limitTemperature=limitT, Type=Upper, LimitedCells=0, CellsPercent=0, Tmax=6000, UnlimitedTmax=6000
DICPBiCGStab:  Solving for p_rgh, Initial residual = 0.98936175, Final residual = 0.09530117, No Iterations 4
time step continuity errors : sum local = 1.4533694e+28, global = 3.0674887e+13, cumulative = 3.4718586e+13
Min/max rho:0.007310771 7.5000013e+14
DILUPBiCGStab:  Solving for epsilon, Initial residual = 0.094382545, Final residual = 0.0030278096, No Iterations 1
bounding epsilon, min: -5.0018424e+30 max: 5.6515706e+33 average: 1.7142402e+30
DILUPBiCGStab:  Solving for k, Initial residual = 0.85610068, Final residual = 0.038270168, No Iterations 1
bounding k, min: -6.8535889e+23 max: 1.2466272e+46 average: 2.3726388e+42
ExecutionTime = 9.69 s  ClockTime = 9 s

volFieldValue fluid write:
    volAverage(fluid) of T = 2400.6463

volFieldValue pcb write:
    volAverage(pcb) of T = 1581.3653

volFieldValue component_0 write:
    volAverage(component_0) of T = 250

volFieldValue component_1 write:
    volAverage(component_1) of T = 6000

volFieldValue component_2 write:
    volAverage(component_2) of T = 250

volFieldValue component_3 write:
    volAverage(component_3) of T = 250

volFieldValue component_4 write:
    volAverage(component_4) of T = 250

Time = 126


Solving for fluid region fluid
DILUPBiCGStab:  Solving for Ux, Initial residual = 2.1997235e-09, Final residual = 2.1997235e-09, No Iterations 0
DILUPBiCGStab:  Solving for Uy, Initial residual = 9.2091699e-11, Final residual = 9.2091699e-11, No Iterations 0

Solving energy coupled regions
Using lduPrimitiveAssembly: lduAssembly456789
DILUPBiCGStab:  Solving for h, Initial residual = 1, Final residual = 0.028448017, No Iterations 28
limitTemperature=limitT, Type=Lower, LimitedCells=6299, CellsPercent=67.59, Tmin=250, UnlimitedTmin=250
limitTemperature=limitT, Type=Upper, LimitedCells=3021, CellsPercent=32.41, Tmax=6000, UnlimitedTmax=6000
limitTemperature=limitT, Type=Lower, LimitedCells=583, CellsPercent=85.23, Tmin=250, UnlimitedTmin=250
limitTemperature=limitT, Type=Upper, LimitedCells=101, CellsPercent=14.77, Tmax=6000, UnlimitedTmax=6000
limitTemperature=limitT, Type=Lower, LimitedCells=120, CellsPercent=100, Tmin=250, UnlimitedTmin=250
limitTemperature=limitT, Type=Upper, LimitedCells=0, CellsPercent=0, Tmax=6000, UnlimitedTmax=250
limitTemperature=limitT, Type=Lower, LimitedCells=69, CellsPercent=67.65, Tmin=250, UnlimitedTmin=6000
limitTemperature=limitT, Type=Upper, LimitedCells=33, CellsPercent=32.35, Tmax=6000, UnlimitedTmax=6000
limitTemperature=limitT, Type=Lower, LimitedCells=196, CellsPercent=100, Tmin=250, UnlimitedTmin=250
limitTemperature=limitT, Type=Upper, LimitedCells=0, CellsPercent=0, Tmax=6000, UnlimitedTmax=250
limitTemperature=limitT, Type=Lower, LimitedCells=228, CellsPercent=100, Tmin=250, UnlimitedTmin=250
limitTemperature=limitT, Type=Upper, LimitedCells=0, CellsPercent=0, Tmax=6000, UnlimitedTmax=250
limitTemperature=limitT, Type=Lower, LimitedCells=11, CellsPercent=100, Tmin=250, UnlimitedTmin=250
limitTemperature=limitT, Type=Upper, LimitedCells=0, CellsPercent=0, Tmax=6000, UnlimitedTmax=250
DICPBiCGStab:  Solving for p_rgh, Initial residual = 1, Final residual = 0.090286167, No Iterations 7
time step continuity errors : sum local = 2.5448156e+40, global = 3.1508798e+24, cumulative = 3.1508798e+24
Min/max rho:0.0041455475 8.7500001e+14
DILUPBiCGStab:  Solving for epsilon, Initial residual = 3.0507285e-05, Final residual = 1.4210033e-07, No Iterations 1
bounding epsilon, min: -4.8732185e+68 max: 3.4618003e+69 average: 3.0567917e+65
DILUPBiCGStab:  Solving for k, Initial residual = 0.90125741, Final residual = 8.0522949e-11, No Iterations 1
bounding k, min: -4.169243e+46 max: 9.094084e+66 average: 1.1242448e+63
ExecutionTime = 9.74 s  ClockTime = 10 s

volFieldValue fluid write:
    volAverage(fluid) of T = 1987.7971

volFieldValue pcb write:
    volAverage(pcb) of T = 1103.6277

volFieldValue component_0 write:
    volAverage(component_0) of T = 250

volFieldValue component_1 write:
    volAverage(component_1) of T = 2061.2849

volFieldValue component_2 write:
    volAverage(component_2) of T = 250

volFieldValue component_3 write:
    volAverage(component_3) of T = 250

volFieldValue component_4 write:
    volAverage(component_4) of T = 250

Time = 127


Solving for fluid region fluid
DILUPBiCGStab:  Solving for Ux, Initial residual = 1.8769151e-07, Final residual = 1.8769151e-07, No Iterations 0
DILUPBiCGStab:  Solving for Uy, Initial residual = 1.8776402e-07, Final residual = 1.8776402e-07, No Iterations 0

Solving energy coupled regions
Using lduPrimitiveAssembly: lduAssembly456789
DILUPBiCGStab:  Solving for h, Initial residual = 1, Final residual = 0.024908042, No Iterations 4
limitTemperature=limitT, Type=Lower, LimitedCells=4020, CellsPercent=43.13, Tmin=250, UnlimitedTmin=250
limitTemperature=limitT, Type=Upper, LimitedCells=5300, CellsPercent=56.87, Tmax=6000, UnlimitedTmax=6000
limitTemperature=limitT, Type=Lower, LimitedCells=352, CellsPercent=51.46, Tmin=250, UnlimitedTmin=250
limitTemperature=limitT, Type=Upper, LimitedCells=332, CellsPercent=48.54, Tmax=6000, UnlimitedTmax=6000
limitTemperature=limitT, Type=Lower, LimitedCells=66, CellsPercent=55, Tmin=250, UnlimitedTmin=250
limitTemperature=limitT, Type=Upper, LimitedCells=54, CellsPercent=45, Tmax=6000, UnlimitedTmax=250
limitTemperature=limitT, Type=Lower, LimitedCells=0, CellsPercent=0, Tmin=250, UnlimitedTmin=250
limitTemperature=limitT, Type=Upper, LimitedCells=102, CellsPercent=100, Tmax=6000, UnlimitedTmax=6000
limitTemperature=limitT, Type=Lower, LimitedCells=186, CellsPercent=94.9, Tmin=250, UnlimitedTmin=250
limitTemperature=limitT, Type=Upper, LimitedCells=10, CellsPercent=5.1, Tmax=6000, UnlimitedTmax=250
limitTemperature=limitT, Type=Lower, LimitedCells=39, CellsPercent=17.11, Tmin=250, UnlimitedTmin=250
limitTemperature=limitT, Type=Upper, LimitedCells=189, CellsPercent=82.89, Tmax=6000, UnlimitedTmax=250
limitTemperature=limitT, Type=Lower, LimitedCells=11, CellsPercent=100, Tmin=250, UnlimitedTmin=250
limitTemperature=limitT, Type=Upper, LimitedCells=0, CellsPercent=0, Tmax=6000, UnlimitedTmax=250
[stack trace]
=============
#1  Foam::sigFpe::sigHandler(int) in /usr/lib/openfoam/openfoam2506/platforms/linux64GccDPInt32Opt/lib/libOpenFOAM.so
#2  ? in /lib/x86_64-linux-gnu/libc.so.6
#3  Foam::DICPreconditioner::calcReciprocalD(Foam::Field<double>&, Foam::lduMatrix const&) in /usr/lib/openfoam/openfoam2506/platforms/linux64GccDPInt32Opt/lib/libOpenFOAM.so
#4  Foam::DICPreconditioner::DICPreconditioner(Foam::lduMatrix::solver const&, Foam::dictionary const&) in /usr/lib/openfoam/openfoam2506/platforms/linux64GccDPInt32Opt/lib/libOpenFOAM.so
#5  Foam::lduMatrix::preconditioner::addsymMatrixConstructorToTable<Foam::DICPreconditioner>::New(Foam::lduMatrix::solver const&, Foam::dictionary const&) in /usr/lib/openfoam/openfoam2506/platforms/linux64GccDPInt32Opt/lib/libOpenFOAM.so
#6  Foam::lduMatrix::preconditioner::New(Foam::lduMatrix::solver const&, Foam::dictionary const&) in /usr/lib/openfoam/openfoam2506/platforms/linux64GccDPInt32Opt/lib/libOpenFOAM.so
#7  Foam::PBiCGStab::scalarSolve(Foam::Field<double>&, Foam::Field<double> const&, unsigned char) const in /usr/lib/openfoam/openfoam2506/platforms/linux64GccDPInt32Opt/lib/libOpenFOAM.so
#8  Foam::PBiCGStab::solve(Foam::Field<double>&, Foam::Field<double> const&, unsigned char) const in /usr/lib/openfoam/openfoam2506/platforms/linux64GccDPInt32Opt/lib/libOpenFOAM.so
#9  Foam::fvMatrix<double>::solveSegregated(Foam::dictionary const&) in /usr/lib/openfoam/openfoam2506/platforms/linux64GccDPInt32Opt/lib/libfiniteVolume.so
#10  ? in /usr/lib/openfoam/openfoam2506/platforms/linux64GccDPInt32Opt/lib/libfiniteVolume.so
#11  Foam::fvMesh::solve(Foam::fvMatrix<double>&, Foam::dictionary const&) const in /usr/lib/openfoam/openfoam2506/platforms/linux64GccDPInt32Opt/lib/libfiniteVolume.so
#12  ? in /usr/lib/openfoam/openfoam2506/platforms/linux64GccDPInt32Opt/bin/chtMultiRegionSimpleFoam
#13  ? in /usr/lib/openfoam/openfoam2506/platforms/linux64GccDPInt32Opt/bin/chtMultiRegionSimpleFoam
#14  ? in /lib/x86_64-linux-gnu/libc.so.6
#15  __libc_start_main in /lib/x86_64-linux-gnu/libc.so.6
#16  ? in /usr/lib/openfoam/openfoam2506/platforms/linux64GccDPInt32Opt/bin/chtMultiRegionSimpleFoam
=============
Floating point exception (core dumped)
