/*---------------------------------------------------------------------------*\
| =========                 |                                                 |
| \\      /  F ield         | OpenFOAM: The Open Source CFD Toolbox           |
|  \\    /   O peration     | Version:  2506                                  |
|   \\  /    A nd           | Website:  www.openfoam.com                      |
|    \\/     M anipulation  |                                                 |
\*---------------------------------------------------------------------------*/
Build  : _615aae61-20250627 OPENFOAM=2506 version=2506
Arch   : "LSB;label=32;scalar=64"
Exec   : chtMultiRegionSimpleFoam
Date   : Sep 25 2025
Time   : 01:10:04
Host   : instance-20250906-0051
PID    : 245346
I/O    : uncollated
Case   : /home/ubuntu/ThermalUNet/data_generation/simulation_results/of/case_59
nProcs : 1
trapFpe: Floating point exception trapping enabled (FOAM_SIGFPE).
fileModificationChecking : Monitoring run-time modified files using timeStampMaster (fileModificationSkew 5, maxFileModificationPolls 20)
allowSystemOperations : Allowing user-supplied system call operations

// * * * * * * * * * * * * * * * * * * * * * * * * * * * * * * * * * * * * * //
Create time

Create fluid mesh for region fluid for time = 0

Create solid mesh for region pcb for time = 0

Create solid mesh for region component_0 for time = 0

Create solid mesh for region component_1 for time = 0

Create solid mesh for region component_2 for time = 0

Create solid mesh for region component_3 for time = 0

Create solid mesh for region component_4 for time = 0

*** Reading fluid mesh thermophysical properties for region fluid

    Adding to thermoFluid

Selecting thermodynamics package 
{
    type            heRhoThermo;
    mixture         pureMixture;
    transport       const;
    thermo          hConst;
    equationOfState perfectGas;
    specie          specie;
    energy          sensibleEnthalpy;
}

    Adding to rhoFluid

    Adding to UFluid

    Adding to phiFluid

    Adding to hRefFluid

    Adding to ghFluid

    Adding to ghfFluid

    Adding to turbulence

Selecting turbulence model type RAS
Selecting RAS turbulence model realizableKE
RAS
{
    RASModel        realizableKE;
    turbulence      on;
    printCoeffs     on;
    A0              4;
    C2              1.9;
    sigmak          1;
    sigmaEps        1.2;
}

Radiation model not active: radiationProperties not found
Selecting radiationModel none
    Adding MRF

No MRF models present

    Adding fvOptions

Creating finite volume options from "system/fvOptions"

Selecting finite volume options type limitTemperature
    Source: limitT
    State: active
    - selecting all cells
    - selected 9461 cell(s) with volume 18.270072
*** Reading solid mesh thermophysical properties for region pcb

    Adding to thermos

Selecting thermodynamics package 
{
    type            heSolidThermo;
    mixture         pureMixture;
    transport       constIso;
    thermo          hConst;
    equationOfState rhoConst;
    specie          specie;
    energy          sensibleEnthalpy;
}

    Adding to radiations

Radiation model not active: radiationProperties not found
Selecting radiationModel none
    Adding fvOptions

Creating finite volume options from "system/fvOptions"

Selecting finite volume options type limitTemperature
    Source: limitT
    State: active
    - selecting all cells
    - selected 548 cell(s) with volume 0.97377147
*** Reading solid mesh thermophysical properties for region component_0

    Adding to thermos

Selecting thermodynamics package 
{
    type            heSolidThermo;
    mixture         pureMixture;
    transport       constIso;
    thermo          hConst;
    equationOfState rhoConst;
    specie          specie;
    energy          sensibleEnthalpy;
}

    Adding to radiations

Radiation model not active: radiationProperties not found
Selecting radiationModel none
    Adding fvOptions

Creating finite volume options from "system/fvOptions"

Selecting finite volume options type scalarSemiImplicitSource
    Source: v_CPU_AbsoluteEnergySource
    State: active
    - selecting cells using cellZones (component_0)
    - selected 108 cell(s) with volume 0.1835034
Selecting finite volume options type limitTemperature
    Source: limitT
    State: active
    - selecting all cells
    - selected 108 cell(s) with volume 0.1835034
*** Reading solid mesh thermophysical properties for region component_1

    Adding to thermos

Selecting thermodynamics package 
{
    type            heSolidThermo;
    mixture         pureMixture;
    transport       constIso;
    thermo          hConst;
    equationOfState rhoConst;
    specie          specie;
    energy          sensibleEnthalpy;
}

    Adding to radiations

Radiation model not active: radiationProperties not found
Selecting radiationModel none
    Adding fvOptions

Creating finite volume options from "system/fvOptions"

Selecting finite volume options type scalarSemiImplicitSource
    Source: v_CPU_AbsoluteEnergySource
    State: active
    - selecting cells using cellZones (component_1)
    - selected 47 cell(s) with volume 0.06928816
Selecting finite volume options type limitTemperature
    Source: limitT
    State: active
    - selecting all cells
    - selected 47 cell(s) with volume 0.06928816
*** Reading solid mesh thermophysical properties for region component_2

    Adding to thermos

Selecting thermodynamics package 
{
    type            heSolidThermo;
    mixture         pureMixture;
    transport       constIso;
    thermo          hConst;
    equationOfState rhoConst;
    specie          specie;
    energy          sensibleEnthalpy;
}

    Adding to radiations

Radiation model not active: radiationProperties not found
Selecting radiationModel none
    Adding fvOptions

Creating finite volume options from "system/fvOptions"

Selecting finite volume options type scalarSemiImplicitSource
    Source: v_CPU_AbsoluteEnergySource
    State: active
    - selecting cells using cellZones (component_2)
    - selected 113 cell(s) with volume 0.18824186
Selecting finite volume options type limitTemperature
    Source: limitT
    State: active
    - selecting all cells
    - selected 113 cell(s) with volume 0.18824186
*** Reading solid mesh thermophysical properties for region component_3

    Adding to thermos

Selecting thermodynamics package 
{
    type            heSolidThermo;
    mixture         pureMixture;
    transport       constIso;
    thermo          hConst;
    equationOfState rhoConst;
    specie          specie;
    energy          sensibleEnthalpy;
}

    Adding to radiations

Radiation model not active: radiationProperties not found
Selecting radiationModel none
    Adding fvOptions

Creating finite volume options from "system/fvOptions"

Selecting finite volume options type scalarSemiImplicitSource
    Source: v_CPU_AbsoluteEnergySource
    State: active
    - selecting cells using cellZones (component_3)
    - selected 135 cell(s) with volume 0.23598409
Selecting finite volume options type limitTemperature
    Source: limitT
    State: active
    - selecting all cells
    - selected 135 cell(s) with volume 0.23598409
*** Reading solid mesh thermophysical properties for region component_4

    Adding to thermos

Selecting thermodynamics package 
{
    type            heSolidThermo;
    mixture         pureMixture;
    transport       constIso;
    thermo          hConst;
    equationOfState rhoConst;
    specie          specie;
    energy          sensibleEnthalpy;
}

    Adding to radiations

Radiation model not active: radiationProperties not found
Selecting radiationModel none
    Adding fvOptions

Creating finite volume options from "system/fvOptions"

Selecting finite volume options type scalarSemiImplicitSource
    Source: v_CPU_AbsoluteEnergySource
    State: active
    - selecting cells using cellZones (component_4)
    - selected 50 cell(s) with volume 0.079139299
Selecting finite volume options type limitTemperature
    Source: limitT
    State: active
    - selecting all cells
    - selected 50 cell(s) with volume 0.079139299
Create fvMatrixAssembly.
--> FOAM Warning : 

    failed lookup of region0 (objectRegistry case_59)
    available objects of type objectRegistry:
7(component_3 component_0 component_1 fluid pcb component_4 component_2)


    From const Type& Foam::objectRegistry::lookupObject(const Foam::word&, bool) const [with Type = Foam::objectRegistry]
    in file db/objectRegistry/objectRegistryTemplates.C at line 628.
--> loading function object 'limitT'

Time = 1


Solving for fluid region fluid
DILUPBiCGStab:  Solving for Ux, Initial residual = 1, Final residual = 0.030564919, No Iterations 2
DILUPBiCGStab:  Solving for Uy, Initial residual = 1, Final residual = 0.035127021, No Iterations 2

Solving energy coupled regions
Creating lduPrimitiveAssembly: lduAssembly456789
DILUPBiCGStab:  Solving for h, Initial residual = 0.013772095, Final residual = 0.00022624026, No Iterations 1
limitTemperature=limitT, Type=Lower, LimitedCells=0, CellsPercent=0, Tmin=250, UnlimitedTmin=300
limitTemperature=limitT, Type=Upper, LimitedCells=0, CellsPercent=0, Tmax=6000, UnlimitedTmax=300
limitTemperature=limitT, Type=Lower, LimitedCells=0, CellsPercent=0, Tmin=250, UnlimitedTmin=300
limitTemperature=limitT, Type=Upper, LimitedCells=0, CellsPercent=0, Tmax=6000, UnlimitedTmax=300
limitTemperature=limitT, Type=Lower, LimitedCells=0, CellsPercent=0, Tmin=250, UnlimitedTmin=300
limitTemperature=limitT, Type=Upper, LimitedCells=0, CellsPercent=0, Tmax=6000, UnlimitedTmax=300
limitTemperature=limitT, Type=Lower, LimitedCells=0, CellsPercent=0, Tmin=250, UnlimitedTmin=300
limitTemperature=limitT, Type=Upper, LimitedCells=0, CellsPercent=0, Tmax=6000, UnlimitedTmax=300
limitTemperature=limitT, Type=Lower, LimitedCells=0, CellsPercent=0, Tmin=250, UnlimitedTmin=300
limitTemperature=limitT, Type=Upper, LimitedCells=0, CellsPercent=0, Tmax=6000, UnlimitedTmax=300
limitTemperature=limitT, Type=Lower, LimitedCells=0, CellsPercent=0, Tmin=250, UnlimitedTmin=300
limitTemperature=limitT, Type=Upper, LimitedCells=0, CellsPercent=0, Tmax=6000, UnlimitedTmax=300
limitTemperature=limitT, Type=Lower, LimitedCells=0, CellsPercent=0, Tmin=250, UnlimitedTmin=300
limitTemperature=limitT, Type=Upper, LimitedCells=0, CellsPercent=0, Tmax=6000, UnlimitedTmax=300
DICPBiCGStab:  Solving for p_rgh, Initial residual = 1, Final residual = 0.095544152, No Iterations 102
time step continuity errors : sum local = 0.012234935, global = 0.0071247762, cumulative = 0.0071247762
Min/max rho:1.1766115 1.1766702
DILUPBiCGStab:  Solving for epsilon, Initial residual = 0.88370309, Final residual = 0.028730481, No Iterations 1
DILUPBiCGStab:  Solving for k, Initial residual = 1, Final residual = 0.011767102, No Iterations 1
ExecutionTime = 0.38 s  ClockTime = 0 s

volFieldValue fluid write:
    volAverage(fluid) of T = 300.00006

volFieldValue pcb write:
    volAverage(pcb) of T = 300.00997

volFieldValue component_0 write:
    volAverage(component_0) of T = 300.60226

volFieldValue component_1 write:
    volAverage(component_1) of T = 300.7597

volFieldValue component_2 write:
    volAverage(component_2) of T = 301.55383

volFieldValue component_3 write:
    volAverage(component_3) of T = 301.51431

volFieldValue component_4 write:
    volAverage(component_4) of T = 301.6808

Time = 2


Solving for fluid region fluid
DILUPBiCGStab:  Solving for Ux, Initial residual = 0.67350094, Final residual = 0.013742489, No Iterations 2
DILUPBiCGStab:  Solving for Uy, Initial residual = 0.55040061, Final residual = 0.015799247, No Iterations 2

Solving energy coupled regions
Using lduPrimitiveAssembly: lduAssembly456789
DILUPBiCGStab:  Solving for h, Initial residual = 0.013844904, Final residual = 0.00018804774, No Iterations 1
limitTemperature=limitT, Type=Lower, LimitedCells=0, CellsPercent=0, Tmin=250, UnlimitedTmin=299.99249
limitTemperature=limitT, Type=Upper, LimitedCells=0, CellsPercent=0, Tmax=6000, UnlimitedTmax=300.0224
limitTemperature=limitT, Type=Lower, LimitedCells=0, CellsPercent=0, Tmin=250, UnlimitedTmin=299.99675
limitTemperature=limitT, Type=Upper, LimitedCells=0, CellsPercent=0, Tmax=6000, UnlimitedTmax=300.10618
limitTemperature=limitT, Type=Lower, LimitedCells=0, CellsPercent=0, Tmin=250, UnlimitedTmin=300.43949
limitTemperature=limitT, Type=Upper, LimitedCells=0, CellsPercent=0, Tmax=6000, UnlimitedTmax=300.75705
limitTemperature=limitT, Type=Lower, LimitedCells=0, CellsPercent=0, Tmin=250, UnlimitedTmin=300.56851
limitTemperature=limitT, Type=Upper, LimitedCells=0, CellsPercent=0, Tmax=6000, UnlimitedTmax=301.08649
limitTemperature=limitT, Type=Lower, LimitedCells=0, CellsPercent=0, Tmin=250, UnlimitedTmin=301.13824
limitTemperature=limitT, Type=Upper, LimitedCells=0, CellsPercent=0, Tmax=6000, UnlimitedTmax=301.76529
limitTemperature=limitT, Type=Lower, LimitedCells=0, CellsPercent=0, Tmin=250, UnlimitedTmin=301.05738
limitTemperature=limitT, Type=Upper, LimitedCells=0, CellsPercent=0, Tmax=6000, UnlimitedTmax=301.81494
limitTemperature=limitT, Type=Lower, LimitedCells=0, CellsPercent=0, Tmin=250, UnlimitedTmin=301.1897
limitTemperature=limitT, Type=Upper, LimitedCells=0, CellsPercent=0, Tmax=6000, UnlimitedTmax=302.15405
DICPBiCGStab:  Solving for p_rgh, Initial residual = 0.15566786, Final residual = 0.012541087, No Iterations 165
time step continuity errors : sum local = 0.010733034, global = 0.0025154869, cumulative = 0.0096402631
Min/max rho:1.1725666 1.1767714
DILUPBiCGStab:  Solving for epsilon, Initial residual = 0.84957344, Final residual = 0.0012042372, No Iterations 1
DILUPBiCGStab:  Solving for k, Initial residual = 0.89101449, Final residual = 0.01480499, No Iterations 1
ExecutionTime = 0.56 s  ClockTime = 0 s

volFieldValue fluid write:
    volAverage(fluid) of T = 300.00012

volFieldValue pcb write:
    volAverage(pcb) of T = 300.02865

volFieldValue component_0 write:
    volAverage(component_0) of T = 301.19664

volFieldValue component_1 write:
    volAverage(component_1) of T = 301.49432

volFieldValue component_2 write:
    volAverage(component_2) of T = 303.06741

volFieldValue component_3 write:
    volAverage(component_3) of T = 302.97853

volFieldValue component_4 write:
    volAverage(component_4) of T = 303.31966

Time = 3


Solving for fluid region fluid
DILUPBiCGStab:  Solving for Ux, Initial residual = 0.44367425, Final residual = 0.0093222819, No Iterations 2
DILUPBiCGStab:  Solving for Uy, Initial residual = 0.3577262, Final residual = 0.011614587, No Iterations 2

Solving energy coupled regions
Using lduPrimitiveAssembly: lduAssembly456789
DILUPBiCGStab:  Solving for h, Initial residual = 0.012795303, Final residual = 0.00021588177, No Iterations 1
limitTemperature=limitT, Type=Lower, LimitedCells=0, CellsPercent=0, Tmin=250, UnlimitedTmin=299.99525
limitTemperature=limitT, Type=Upper, LimitedCells=0, CellsPercent=0, Tmax=6000, UnlimitedTmax=300.02303
limitTemperature=limitT, Type=Lower, LimitedCells=0, CellsPercent=0, Tmin=250, UnlimitedTmin=299.99544
limitTemperature=limitT, Type=Upper, LimitedCells=0, CellsPercent=0, Tmax=6000, UnlimitedTmax=300.29607
limitTemperature=limitT, Type=Lower, LimitedCells=0, CellsPercent=0, Tmin=250, UnlimitedTmin=300.93625
limitTemperature=limitT, Type=Upper, LimitedCells=0, CellsPercent=0, Tmax=6000, UnlimitedTmax=301.42329
limitTemperature=limitT, Type=Lower, LimitedCells=0, CellsPercent=0, Tmin=250, UnlimitedTmin=301.16705
limitTemperature=limitT, Type=Upper, LimitedCells=0, CellsPercent=0, Tmax=6000, UnlimitedTmax=301.96737
limitTemperature=limitT, Type=Lower, LimitedCells=0, CellsPercent=0, Tmin=250, UnlimitedTmin=302.39534
limitTemperature=limitT, Type=Upper, LimitedCells=0, CellsPercent=0, Tmax=6000, UnlimitedTmax=303.40255
limitTemperature=limitT, Type=Lower, LimitedCells=0, CellsPercent=0, Tmin=250, UnlimitedTmin=302.22793
limitTemperature=limitT, Type=Upper, LimitedCells=0, CellsPercent=0, Tmax=6000, UnlimitedTmax=303.4304
limitTemperature=limitT, Type=Lower, LimitedCells=0, CellsPercent=0, Tmin=250, UnlimitedTmin=302.53334
limitTemperature=limitT, Type=Upper, LimitedCells=0, CellsPercent=0, Tmax=6000, UnlimitedTmax=304.0489
DICPBiCGStab:  Solving for p_rgh, Initial residual = 0.11921384, Final residual = 0.011698943, No Iterations 13
time step continuity errors : sum local = 0.015459994, global = 0.0045410263, cumulative = 0.014181289
Min/max rho:1.1669307 1.1768928
DILUPBiCGStab:  Solving for epsilon, Initial residual = 0.75693921, Final residual = 0.0027018775, No Iterations 1
DILUPBiCGStab:  Solving for k, Initial residual = 0.74486794, Final residual = 0.016890432, No Iterations 1
ExecutionTime = 0.59 s  ClockTime = 0 s

volFieldValue fluid write:
    volAverage(fluid) of T = 300.00059

volFieldValue pcb write:
    volAverage(pcb) of T = 300.05411

volFieldValue component_0 write:
    volAverage(component_0) of T = 301.74663

volFieldValue component_1 write:
    volAverage(component_1) of T = 302.1371

volFieldValue component_2 write:
    volAverage(component_2) of T = 304.30115

volFieldValue component_3 write:
    volAverage(component_3) of T = 304.12306

volFieldValue component_4 write:
    volAverage(component_4) of T = 304.70539

Time = 4


Solving for fluid region fluid
DILUPBiCGStab:  Solving for Ux, Initial residual = 0.26583126, Final residual = 0.0059430965, No Iterations 2
DILUPBiCGStab:  Solving for Uy, Initial residual = 0.20901135, Final residual = 0.0052000189, No Iterations 2

Solving energy coupled regions
Using lduPrimitiveAssembly: lduAssembly456789
DILUPBiCGStab:  Solving for h, Initial residual = 0.01243794, Final residual = 0.000239248, No Iterations 1
limitTemperature=limitT, Type=Lower, LimitedCells=0, CellsPercent=0, Tmin=250, UnlimitedTmin=299.99742
limitTemperature=limitT, Type=Upper, LimitedCells=0, CellsPercent=0, Tmax=6000, UnlimitedTmax=300.12219
limitTemperature=limitT, Type=Lower, LimitedCells=0, CellsPercent=0, Tmin=250, UnlimitedTmin=299.99684
limitTemperature=limitT, Type=Upper, LimitedCells=0, CellsPercent=0, Tmax=6000, UnlimitedTmax=300.53025
limitTemperature=limitT, Type=Lower, LimitedCells=0, CellsPercent=0, Tmin=250, UnlimitedTmin=301.45968
limitTemperature=limitT, Type=Upper, LimitedCells=0, CellsPercent=0, Tmax=6000, UnlimitedTmax=302.01957
limitTemperature=limitT, Type=Lower, LimitedCells=0, CellsPercent=0, Tmin=250, UnlimitedTmin=301.77835
limitTemperature=limitT, Type=Upper, LimitedCells=0, CellsPercent=0, Tmax=6000, UnlimitedTmax=302.64351
limitTemperature=limitT, Type=Lower, LimitedCells=0, CellsPercent=0, Tmin=250, UnlimitedTmin=303.01426
limitTemperature=limitT, Type=Upper, LimitedCells=0, CellsPercent=0, Tmax=6000, UnlimitedTmax=304.95643
limitTemperature=limitT, Type=Lower, LimitedCells=0, CellsPercent=0, Tmin=250, UnlimitedTmin=302.62861
limitTemperature=limitT, Type=Upper, LimitedCells=0, CellsPercent=0, Tmax=6000, UnlimitedTmax=304.93349
limitTemperature=limitT, Type=Lower, LimitedCells=0, CellsPercent=0, Tmin=250, UnlimitedTmin=303.93629
limitTemperature=limitT, Type=Upper, LimitedCells=0, CellsPercent=0, Tmax=6000, UnlimitedTmax=305.50111
DICPBiCGStab:  Solving for p_rgh, Initial residual = 0.20059678, Final residual = 0.019874224, No Iterations 8
time step continuity errors : sum local = 0.028118997, global = 0.0066301995, cumulative = 0.020811489
Min/max rho:1.1613547 1.176949
DILUPBiCGStab:  Solving for epsilon, Initial residual = 0.59042516, Final residual = 0.0045092981, No Iterations 1
DILUPBiCGStab:  Solving for k, Initial residual = 0.58522406, Final residual = 0.017189546, No Iterations 1
ExecutionTime = 0.67 s  ClockTime = 0 s

volFieldValue fluid write:
    volAverage(fluid) of T = 300.00137

volFieldValue pcb write:
    volAverage(pcb) of T = 300.08601

volFieldValue component_0 write:
    volAverage(component_0) of T = 302.26976

volFieldValue component_1 write:
    volAverage(component_1) of T = 302.73605

volFieldValue component_2 write:
    volAverage(component_2) of T = 305.36131

volFieldValue component_3 write:
    volAverage(component_3) of T = 305.06993

volFieldValue component_4 write:
    volAverage(component_4) of T = 305.9511

Time = 5


Solving for fluid region fluid
DILUPBiCGStab:  Solving for Ux, Initial residual = 0.17608961, Final residual = 0.0034686736, No Iterations 2
DILUPBiCGStab:  Solving for Uy, Initial residual = 0.12898187, Final residual = 0.0036000742, No Iterations 2

Solving energy coupled regions
Using lduPrimitiveAssembly: lduAssembly456789
DILUPBiCGStab:  Solving for h, Initial residual = 0.01197772, Final residual = 0.0002199079, No Iterations 1
limitTemperature=limitT, Type=Lower, LimitedCells=0, CellsPercent=0, Tmin=250, UnlimitedTmin=299.9983
limitTemperature=limitT, Type=Upper, LimitedCells=0, CellsPercent=0, Tmax=6000, UnlimitedTmax=300.265
limitTemperature=limitT, Type=Lower, LimitedCells=0, CellsPercent=0, Tmin=250, UnlimitedTmin=299.99832
limitTemperature=limitT, Type=Upper, LimitedCells=0, CellsPercent=0, Tmax=6000, UnlimitedTmax=300.81232
limitTemperature=limitT, Type=Lower, LimitedCells=0, CellsPercent=0, Tmin=250, UnlimitedTmin=301.98214
limitTemperature=limitT, Type=Upper, LimitedCells=0, CellsPercent=0, Tmax=6000, UnlimitedTmax=302.643
limitTemperature=limitT, Type=Lower, LimitedCells=0, CellsPercent=0, Tmin=250, UnlimitedTmin=302.38109
limitTemperature=limitT, Type=Upper, LimitedCells=0, CellsPercent=0, Tmax=6000, UnlimitedTmax=303.25302
limitTemperature=limitT, Type=Lower, LimitedCells=0, CellsPercent=0, Tmin=250, UnlimitedTmin=302.73582
limitTemperature=limitT, Type=Upper, LimitedCells=0, CellsPercent=0, Tmax=6000, UnlimitedTmax=306.4358
limitTemperature=limitT, Type=Lower, LimitedCells=0, CellsPercent=0, Tmin=250, UnlimitedTmin=301.90819
limitTemperature=limitT, Type=Upper, LimitedCells=0, CellsPercent=0, Tmax=6000, UnlimitedTmax=306.34761
limitTemperature=limitT, Type=Lower, LimitedCells=0, CellsPercent=0, Tmin=250, UnlimitedTmin=305.03097
limitTemperature=limitT, Type=Upper, LimitedCells=0, CellsPercent=0, Tmax=6000, UnlimitedTmax=307.02709
DICPBiCGStab:  Solving for p_rgh, Initial residual = 0.2280709, Final residual = 0.022614062, No Iterations 14
time step continuity errors : sum local = 0.032459469, global = 0.0085770995, cumulative = 0.029388588
Min/max rho:1.1560437 1.1769761
DILUPBiCGStab:  Solving for epsilon, Initial residual = 0.38562326, Final residual = 0.004936125, No Iterations 1
DILUPBiCGStab:  Solving for k, Initial residual = 0.45766372, Final residual = 0.015980088, No Iterations 1
ExecutionTime = 0.75 s  ClockTime = 0 s

volFieldValue fluid write:
    volAverage(fluid) of T = 300.00196

volFieldValue pcb write:
    volAverage(pcb) of T = 300.12292

volFieldValue component_0 write:
    volAverage(component_0) of T = 302.77972

volFieldValue component_1 write:
    volAverage(component_1) of T = 303.31463

volFieldValue component_2 write:
    volAverage(component_2) of T = 306.38392

volFieldValue component_3 write:
    volAverage(component_3) of T = 305.99391

volFieldValue component_4 write:
    volAverage(component_4) of T = 307.14577

Time = 6


Solving for fluid region fluid
DILUPBiCGStab:  Solving for Ux, Initial residual = 0.13353423, Final residual = 0.0029287605, No Iterations 2
DILUPBiCGStab:  Solving for Uy, Initial residual = 0.079109355, Final residual = 0.0036319001, No Iterations 2

Solving energy coupled regions
Using lduPrimitiveAssembly: lduAssembly456789
DILUPBiCGStab:  Solving for h, Initial residual = 0.012048155, Final residual = 0.00020805772, No Iterations 1
limitTemperature=limitT, Type=Lower, LimitedCells=0, CellsPercent=0, Tmin=250, UnlimitedTmin=299.99833
limitTemperature=limitT, Type=Upper, LimitedCells=0, CellsPercent=0, Tmax=6000, UnlimitedTmax=300.29338
limitTemperature=limitT, Type=Lower, LimitedCells=0, CellsPercent=0, Tmin=250, UnlimitedTmin=299.9987
limitTemperature=limitT, Type=Upper, LimitedCells=0, CellsPercent=0, Tmax=6000, UnlimitedTmax=301.14341
limitTemperature=limitT, Type=Lower, LimitedCells=0, CellsPercent=0, Tmin=250, UnlimitedTmin=302.25153
limitTemperature=limitT, Type=Upper, LimitedCells=0, CellsPercent=0, Tmax=6000, UnlimitedTmax=303.25299
limitTemperature=limitT, Type=Lower, LimitedCells=0, CellsPercent=0, Tmin=250, UnlimitedTmin=302.91649
limitTemperature=limitT, Type=Upper, LimitedCells=0, CellsPercent=0, Tmax=6000, UnlimitedTmax=303.83244
limitTemperature=limitT, Type=Lower, LimitedCells=0, CellsPercent=0, Tmin=250, UnlimitedTmin=303.08153
limitTemperature=limitT, Type=Upper, LimitedCells=0, CellsPercent=0, Tmax=6000, UnlimitedTmax=307.8514
limitTemperature=limitT, Type=Lower, LimitedCells=0, CellsPercent=0, Tmin=250, UnlimitedTmin=302.17489
limitTemperature=limitT, Type=Upper, LimitedCells=0, CellsPercent=0, Tmax=6000, UnlimitedTmax=307.68006
limitTemperature=limitT, Type=Lower, LimitedCells=0, CellsPercent=0, Tmin=250, UnlimitedTmin=305.58806
limitTemperature=limitT, Type=Upper, LimitedCells=0, CellsPercent=0, Tmax=6000, UnlimitedTmax=308.51227
DICPBiCGStab:  Solving for p_rgh, Initial residual = 0.21384496, Final residual = 0.020781477, No Iterations 21
time step continuity errors : sum local = 0.029328083, global = 0.014849152, cumulative = 0.04423774
Min/max rho:1.1511189 1.1769831
DILUPBiCGStab:  Solving for epsilon, Initial residual = 0.23206312, Final residual = 0.0042493851, No Iterations 1
DILUPBiCGStab:  Solving for k, Initial residual = 0.35739901, Final residual = 0.013990788, No Iterations 1
ExecutionTime = 0.79 s  ClockTime = 0 s

volFieldValue fluid write:
    volAverage(fluid) of T = 300.00258

volFieldValue pcb write:
    volAverage(pcb) of T = 300.16456

volFieldValue component_0 write:
    volAverage(component_0) of T = 303.27995

volFieldValue component_1 write:
    volAverage(component_1) of T = 303.87206

volFieldValue component_2 write:
    volAverage(component_2) of T = 307.39694

volFieldValue component_3 write:
    volAverage(component_3) of T = 306.93561

volFieldValue component_4 write:
    volAverage(component_4) of T = 308.31735

Time = 7


Solving for fluid region fluid
DILUPBiCGStab:  Solving for Ux, Initial residual = 0.12184161, Final residual = 0.0027741971, No Iterations 2
DILUPBiCGStab:  Solving for Uy, Initial residual = 0.066085704, Final residual = 0.0014641629, No Iterations 2

Solving energy coupled regions
Using lduPrimitiveAssembly: lduAssembly456789
DILUPBiCGStab:  Solving for h, Initial residual = 0.012044882, Final residual = 0.00020252805, No Iterations 1
limitTemperature=limitT, Type=Lower, LimitedCells=0, CellsPercent=0, Tmin=250, UnlimitedTmin=299.99833
limitTemperature=limitT, Type=Upper, LimitedCells=0, CellsPercent=0, Tmax=6000, UnlimitedTmax=300.48788
limitTemperature=limitT, Type=Lower, LimitedCells=0, CellsPercent=0, Tmin=250, UnlimitedTmin=299.99848
limitTemperature=limitT, Type=Upper, LimitedCells=0, CellsPercent=0, Tmax=6000, UnlimitedTmax=301.51216
limitTemperature=limitT, Type=Lower, LimitedCells=0, CellsPercent=0, Tmin=250, UnlimitedTmin=302.58068
limitTemperature=limitT, Type=Upper, LimitedCells=0, CellsPercent=0, Tmax=6000, UnlimitedTmax=303.85133
limitTemperature=limitT, Type=Lower, LimitedCells=0, CellsPercent=0, Tmin=250, UnlimitedTmin=303.41613
limitTemperature=limitT, Type=Upper, LimitedCells=0, CellsPercent=0, Tmax=6000, UnlimitedTmax=304.37687
limitTemperature=limitT, Type=Lower, LimitedCells=0, CellsPercent=0, Tmin=250, UnlimitedTmin=303.73026
limitTemperature=limitT, Type=Upper, LimitedCells=0, CellsPercent=0, Tmax=6000, UnlimitedTmax=309.20628
limitTemperature=limitT, Type=Lower, LimitedCells=0, CellsPercent=0, Tmin=250, UnlimitedTmin=303.09464
limitTemperature=limitT, Type=Upper, LimitedCells=0, CellsPercent=0, Tmax=6000, UnlimitedTmax=308.93506
limitTemperature=limitT, Type=Lower, LimitedCells=0, CellsPercent=0, Tmin=250, UnlimitedTmin=306.44155
limitTemperature=limitT, Type=Upper, LimitedCells=0, CellsPercent=0, Tmax=6000, UnlimitedTmax=309.92324
DICPBiCGStab:  Solving for p_rgh, Initial residual = 0.18372349, Final residual = 0.018370061, No Iterations 63
time step continuity errors : sum local = 0.024256671, global = 0.024234529, cumulative = 0.068472269
Min/max rho:1.1464682 1.176971
DILUPBiCGStab:  Solving for epsilon, Initial residual = 0.1453698, Final residual = 0.003292283, No Iterations 1
DILUPBiCGStab:  Solving for k, Initial residual = 0.28321177, Final residual = 0.011946673, No Iterations 1
ExecutionTime = 0.9 s  ClockTime = 1 s

volFieldValue fluid write:
    volAverage(fluid) of T = 300.00329

volFieldValue pcb write:
    volAverage(pcb) of T = 300.21116

volFieldValue component_0 write:
    volAverage(component_0) of T = 303.77322

volFieldValue component_1 write:
    volAverage(component_1) of T = 304.41388

volFieldValue component_2 write:
    volAverage(component_2) of T = 308.37765

volFieldValue component_3 write:
    volAverage(component_3) of T = 307.84683

volFieldValue component_4 write:
    volAverage(component_4) of T = 309.46329

Time = 8


Solving for fluid region fluid
DILUPBiCGStab:  Solving for Ux, Initial residual = 0.11225743, Final residual = 0.0024745735, No Iterations 2
DILUPBiCGStab:  Solving for Uy, Initial residual = 0.081276465, Final residual = 0.001983191, No Iterations 2

Solving energy coupled regions
Using lduPrimitiveAssembly: lduAssembly456789
DILUPBiCGStab:  Solving for h, Initial residual = 0.012064092, Final residual = 0.00020342044, No Iterations 1
limitTemperature=limitT, Type=Lower, LimitedCells=0, CellsPercent=0, Tmin=250, UnlimitedTmin=299.998
limitTemperature=limitT, Type=Upper, LimitedCells=0, CellsPercent=0, Tmax=6000, UnlimitedTmax=300.75535
limitTemperature=limitT, Type=Lower, LimitedCells=0, CellsPercent=0, Tmin=250, UnlimitedTmin=299.9983
limitTemperature=limitT, Type=Upper, LimitedCells=0, CellsPercent=0, Tmax=6000, UnlimitedTmax=301.92
limitTemperature=limitT, Type=Lower, LimitedCells=0, CellsPercent=0, Tmin=250, UnlimitedTmin=302.94889
limitTemperature=limitT, Type=Upper, LimitedCells=0, CellsPercent=0, Tmax=6000, UnlimitedTmax=304.43894
limitTemperature=limitT, Type=Lower, LimitedCells=0, CellsPercent=0, Tmin=250, UnlimitedTmin=303.92505
limitTemperature=limitT, Type=Upper, LimitedCells=0, CellsPercent=0, Tmax=6000, UnlimitedTmax=304.91695
limitTemperature=limitT, Type=Lower, LimitedCells=0, CellsPercent=0, Tmin=250, UnlimitedTmin=304.16487
limitTemperature=limitT, Type=Upper, LimitedCells=0, CellsPercent=0, Tmax=6000, UnlimitedTmax=310.50445
limitTemperature=limitT, Type=Lower, LimitedCells=0, CellsPercent=0, Tmin=250, UnlimitedTmin=303.44513
limitTemperature=limitT, Type=Upper, LimitedCells=0, CellsPercent=0, Tmax=6000, UnlimitedTmax=310.1225
limitTemperature=limitT, Type=Lower, LimitedCells=0, CellsPercent=0, Tmin=250, UnlimitedTmin=307.41504
limitTemperature=limitT, Type=Upper, LimitedCells=0, CellsPercent=0, Tmax=6000, UnlimitedTmax=311.27454
DICPBiCGStab:  Solving for p_rgh, Initial residual = 0.20294821, Final residual = 0.0088127051, No Iterations 106
time step continuity errors : sum local = 0.010114422, global = 0.0023821563, cumulative = 0.070854425
Min/max rho:1.1419772 1.1769423
DILUPBiCGStab:  Solving for epsilon, Initial residual = 0.099499377, Final residual = 0.0021094681, No Iterations 1
DILUPBiCGStab:  Solving for k, Initial residual = 0.2373557, Final residual = 0.0090689274, No Iterations 1
ExecutionTime = 1.07 s  ClockTime = 1 s

volFieldValue fluid write:
    volAverage(fluid) of T = 300.00402

volFieldValue pcb write:
    volAverage(pcb) of T = 300.26176

volFieldValue component_0 write:
    volAverage(component_0) of T = 304.26245

volFieldValue component_1 write:
    volAverage(component_1) of T = 304.94957

volFieldValue component_2 write:
    volAverage(component_2) of T = 309.31574

volFieldValue component_3 write:
    volAverage(component_3) of T = 308.70466

volFieldValue component_4 write:
    volAverage(component_4) of T = 310.57868

Time = 9


Solving for fluid region fluid
DILUPBiCGStab:  Solving for Ux, Initial residual = 0.12422314, Final residual = 0.0036162178, No Iterations 2
DILUPBiCGStab:  Solving for Uy, Initial residual = 0.12590273, Final residual = 0.0026293393, No Iterations 2

Solving energy coupled regions
Using lduPrimitiveAssembly: lduAssembly456789
DILUPBiCGStab:  Solving for h, Initial residual = 0.012509041, Final residual = 0.00022226887, No Iterations 1
limitTemperature=limitT, Type=Lower, LimitedCells=0, CellsPercent=0, Tmin=250, UnlimitedTmin=299.99766
limitTemperature=limitT, Type=Upper, LimitedCells=0, CellsPercent=0, Tmax=6000, UnlimitedTmax=300.63256
limitTemperature=limitT, Type=Lower, LimitedCells=0, CellsPercent=0, Tmin=250, UnlimitedTmin=299.99816
limitTemperature=limitT, Type=Upper, LimitedCells=0, CellsPercent=0, Tmax=6000, UnlimitedTmax=302.3578
limitTemperature=limitT, Type=Lower, LimitedCells=0, CellsPercent=0, Tmin=250, UnlimitedTmin=303.33068
limitTemperature=limitT, Type=Upper, LimitedCells=0, CellsPercent=0, Tmax=6000, UnlimitedTmax=305.01661
limitTemperature=limitT, Type=Lower, LimitedCells=0, CellsPercent=0, Tmin=250, UnlimitedTmin=304.43708
limitTemperature=limitT, Type=Upper, LimitedCells=0, CellsPercent=0, Tmax=6000, UnlimitedTmax=305.46729
limitTemperature=limitT, Type=Lower, LimitedCells=0, CellsPercent=0, Tmin=250, UnlimitedTmin=304.37933
limitTemperature=limitT, Type=Upper, LimitedCells=0, CellsPercent=0, Tmax=6000, UnlimitedTmax=311.74682
limitTemperature=limitT, Type=Lower, LimitedCells=0, CellsPercent=0, Tmin=250, UnlimitedTmin=303.54603
limitTemperature=limitT, Type=Upper, LimitedCells=0, CellsPercent=0, Tmax=6000, UnlimitedTmax=311.25087
limitTemperature=limitT, Type=Lower, LimitedCells=0, CellsPercent=0, Tmin=250, UnlimitedTmin=308.31494
limitTemperature=limitT, Type=Upper, LimitedCells=0, CellsPercent=0, Tmax=6000, UnlimitedTmax=312.57716
DICPBiCGStab:  Solving for p_rgh, Initial residual = 0.28199703, Final residual = 0.027645117, No Iterations 9
time step continuity errors : sum local = 0.031840757, global = 0.020351795, cumulative = 0.09120622
Min/max rho:1.1375573 1.1767172
DILUPBiCGStab:  Solving for epsilon, Initial residual = 0.064254881, Final residual = 0.0017308288, No Iterations 1
DILUPBiCGStab:  Solving for k, Initial residual = 0.18983486, Final residual = 0.0085130115, No Iterations 1
ExecutionTime = 1.11 s  ClockTime = 1 s

volFieldValue fluid write:
    volAverage(fluid) of T = 300.00506

volFieldValue pcb write:
    volAverage(pcb) of T = 300.3165

volFieldValue component_0 write:
    volAverage(component_0) of T = 304.74775

volFieldValue component_1 write:
    volAverage(component_1) of T = 305.48552

volFieldValue component_2 write:
    volAverage(component_2) of T = 310.23365

volFieldValue component_3 write:
    volAverage(component_3) of T = 309.52742

volFieldValue component_4 write:
    volAverage(component_4) of T = 311.6562

Time = 10


Solving for fluid region fluid
DILUPBiCGStab:  Solving for Ux, Initial residual = 0.11844683, Final residual = 0.0025119835, No Iterations 2
DILUPBiCGStab:  Solving for Uy, Initial residual = 0.10037968, Final residual = 0.002026865, No Iterations 2

Solving energy coupled regions
Using lduPrimitiveAssembly: lduAssembly456789
DILUPBiCGStab:  Solving for h, Initial residual = 0.012326691, Final residual = 0.00021485145, No Iterations 1
limitTemperature=limitT, Type=Lower, LimitedCells=0, CellsPercent=0, Tmin=250, UnlimitedTmin=299.99729
limitTemperature=limitT, Type=Upper, LimitedCells=0, CellsPercent=0, Tmax=6000, UnlimitedTmax=300.75008
limitTemperature=limitT, Type=Lower, LimitedCells=0, CellsPercent=0, Tmin=250, UnlimitedTmin=299.998
limitTemperature=limitT, Type=Upper, LimitedCells=0, CellsPercent=0, Tmax=6000, UnlimitedTmax=302.82251
limitTemperature=limitT, Type=Lower, LimitedCells=0, CellsPercent=0, Tmin=250, UnlimitedTmin=303.69148
limitTemperature=limitT, Type=Upper, LimitedCells=0, CellsPercent=0, Tmax=6000, UnlimitedTmax=305.58511
limitTemperature=limitT, Type=Lower, LimitedCells=0, CellsPercent=0, Tmin=250, UnlimitedTmin=304.97255
limitTemperature=limitT, Type=Upper, LimitedCells=0, CellsPercent=0, Tmax=6000, UnlimitedTmax=306.01619
limitTemperature=limitT, Type=Lower, LimitedCells=0, CellsPercent=0, Tmin=250, UnlimitedTmin=304.66355
limitTemperature=limitT, Type=Upper, LimitedCells=0, CellsPercent=0, Tmax=6000, UnlimitedTmax=312.93908
limitTemperature=limitT, Type=Lower, LimitedCells=0, CellsPercent=0, Tmin=250, UnlimitedTmin=303.67647
limitTemperature=limitT, Type=Upper, LimitedCells=0, CellsPercent=0, Tmax=6000, UnlimitedTmax=312.32672
limitTemperature=limitT, Type=Lower, LimitedCells=0, CellsPercent=0, Tmin=250, UnlimitedTmin=308.96682
limitTemperature=limitT, Type=Upper, LimitedCells=0, CellsPercent=0, Tmax=6000, UnlimitedTmax=313.83664
DICPBiCGStab:  Solving for p_rgh, Initial residual = 0.33768949, Final residual = 0.032055421, No Iterations 10
time step continuity errors : sum local = 0.035313626, global = 0.02022995, cumulative = 0.11143617
Min/max rho:1.133325 1.1766659
DILUPBiCGStab:  Solving for epsilon, Initial residual = 0.046697883, Final residual = 0.0014643945, No Iterations 1
DILUPBiCGStab:  Solving for k, Initial residual = 0.16030756, Final residual = 0.007831521, No Iterations 1
ExecutionTime = 1.19 s  ClockTime = 1 s

volFieldValue fluid write:
    volAverage(fluid) of T = 300.00639

volFieldValue pcb write:
    volAverage(pcb) of T = 300.37547

volFieldValue component_0 write:
    volAverage(component_0) of T = 305.22511

volFieldValue component_1 write:
    volAverage(component_1) of T = 306.02452

volFieldValue component_2 write:
    volAverage(component_2) of T = 311.11889

volFieldValue component_3 write:
    volAverage(component_3) of T = 310.32127

volFieldValue component_4 write:
    volAverage(component_4) of T = 312.71668

Time = 11


Solving for fluid region fluid
DILUPBiCGStab:  Solving for Ux, Initial residual = 0.13153786, Final residual = 0.0030186872, No Iterations 2
DILUPBiCGStab:  Solving for Uy, Initial residual = 0.09169741, Final residual = 0.0020351481, No Iterations 2

Solving energy coupled regions
Using lduPrimitiveAssembly: lduAssembly456789
DILUPBiCGStab:  Solving for h, Initial residual = 0.012610455, Final residual = 0.00025764798, No Iterations 1
limitTemperature=limitT, Type=Lower, LimitedCells=0, CellsPercent=0, Tmin=250, UnlimitedTmin=299.99712
limitTemperature=limitT, Type=Upper, LimitedCells=0, CellsPercent=0, Tmax=6000, UnlimitedTmax=300.88206
limitTemperature=limitT, Type=Lower, LimitedCells=0, CellsPercent=0, Tmin=250, UnlimitedTmin=299.99792
limitTemperature=limitT, Type=Upper, LimitedCells=0, CellsPercent=0, Tmax=6000, UnlimitedTmax=303.31046
limitTemperature=limitT, Type=Lower, LimitedCells=0, CellsPercent=0, Tmin=250, UnlimitedTmin=304.01492
limitTemperature=limitT, Type=Upper, LimitedCells=0, CellsPercent=0, Tmax=6000, UnlimitedTmax=306.14466
limitTemperature=limitT, Type=Lower, LimitedCells=0, CellsPercent=0, Tmin=250, UnlimitedTmin=305.49891
limitTemperature=limitT, Type=Upper, LimitedCells=0, CellsPercent=0, Tmax=6000, UnlimitedTmax=306.58395
limitTemperature=limitT, Type=Lower, LimitedCells=0, CellsPercent=0, Tmin=250, UnlimitedTmin=305.0166
limitTemperature=limitT, Type=Upper, LimitedCells=0, CellsPercent=0, Tmax=6000, UnlimitedTmax=314.0867
limitTemperature=limitT, Type=Lower, LimitedCells=0, CellsPercent=0, Tmin=250, UnlimitedTmin=303.98683
limitTemperature=limitT, Type=Upper, LimitedCells=0, CellsPercent=0, Tmax=6000, UnlimitedTmax=313.35458
limitTemperature=limitT, Type=Lower, LimitedCells=0, CellsPercent=0, Tmin=250, UnlimitedTmin=309.59981
limitTemperature=limitT, Type=Upper, LimitedCells=0, CellsPercent=0, Tmax=6000, UnlimitedTmax=315.05955
DICPBiCGStab:  Solving for p_rgh, Initial residual = 0.34278595, Final residual = 0.033522078, No Iterations 11
time step continuity errors : sum local = 0.036817534, global = 0.019025668, cumulative = 0.13046184
Min/max rho:1.1292067 1.1766626
DILUPBiCGStab:  Solving for epsilon, Initial residual = 0.034403367, Final residual = 0.0012702342, No Iterations 1
DILUPBiCGStab:  Solving for k, Initial residual = 0.13347182, Final residual = 0.0016480602, No Iterations 2
ExecutionTime = 1.28 s  ClockTime = 1 s

volFieldValue fluid write:
    volAverage(fluid) of T = 300.00781

volFieldValue pcb write:
    volAverage(pcb) of T = 300.43785

volFieldValue component_0 write:
    volAverage(component_0) of T = 305.67697

volFieldValue component_1 write:
    volAverage(component_1) of T = 306.5454

volFieldValue component_2 write:
    volAverage(component_2) of T = 311.9637

volFieldValue component_3 write:
    volAverage(component_3) of T = 311.08131

volFieldValue component_4 write:
    volAverage(component_4) of T = 313.74353

Time = 12


Solving for fluid region fluid
DILUPBiCGStab:  Solving for Ux, Initial residual = 0.14403167, Final residual = 0.0031409935, No Iterations 2
DILUPBiCGStab:  Solving for Uy, Initial residual = 0.092258764, Final residual = 0.002192258, No Iterations 2

Solving energy coupled regions
Using lduPrimitiveAssembly: lduAssembly456789
DILUPBiCGStab:  Solving for h, Initial residual = 0.01304775, Final residual = 0.0003394323, No Iterations 1
limitTemperature=limitT, Type=Lower, LimitedCells=0, CellsPercent=0, Tmin=250, UnlimitedTmin=299.99706
limitTemperature=limitT, Type=Upper, LimitedCells=0, CellsPercent=0, Tmax=6000, UnlimitedTmax=301.60272
limitTemperature=limitT, Type=Lower, LimitedCells=0, CellsPercent=0, Tmin=250, UnlimitedTmin=299.99792
limitTemperature=limitT, Type=Upper, LimitedCells=0, CellsPercent=0, Tmax=6000, UnlimitedTmax=303.8196
limitTemperature=limitT, Type=Lower, LimitedCells=0, CellsPercent=0, Tmin=250, UnlimitedTmin=304.23443
limitTemperature=limitT, Type=Upper, LimitedCells=0, CellsPercent=0, Tmax=6000, UnlimitedTmax=306.69504
limitTemperature=limitT, Type=Lower, LimitedCells=0, CellsPercent=0, Tmin=250, UnlimitedTmin=305.96178
limitTemperature=limitT, Type=Upper, LimitedCells=0, CellsPercent=0, Tmax=6000, UnlimitedTmax=307.12924
limitTemperature=limitT, Type=Lower, LimitedCells=0, CellsPercent=0, Tmin=250, UnlimitedTmin=305.41084
limitTemperature=limitT, Type=Upper, LimitedCells=0, CellsPercent=0, Tmax=6000, UnlimitedTmax=315.19287
limitTemperature=limitT, Type=Lower, LimitedCells=0, CellsPercent=0, Tmin=250, UnlimitedTmin=304.35704
limitTemperature=limitT, Type=Upper, LimitedCells=0, CellsPercent=0, Tmax=6000, UnlimitedTmax=314.33627
limitTemperature=limitT, Type=Lower, LimitedCells=0, CellsPercent=0, Tmin=250, UnlimitedTmin=310.22239
limitTemperature=limitT, Type=Upper, LimitedCells=0, CellsPercent=0, Tmax=6000, UnlimitedTmax=316.24898
DICPBiCGStab:  Solving for p_rgh, Initial residual = 0.3265621, Final residual = 0.031640963, No Iterations 13
time step continuity errors : sum local = 0.034346031, global = 0.01503275, cumulative = 0.14549459
Min/max rho:1.1252024 1.1766608
DILUPBiCGStab:  Solving for epsilon, Initial residual = 0.025921052, Final residual = 0.00099668674, No Iterations 1
DILUPBiCGStab:  Solving for k, Initial residual = 0.11339822, Final residual = 0.0018519564, No Iterations 2
ExecutionTime = 1.32 s  ClockTime = 1 s

volFieldValue fluid write:
    volAverage(fluid) of T = 300.00907

volFieldValue pcb write:
    volAverage(pcb) of T = 300.50192

volFieldValue component_0 write:
    volAverage(component_0) of T = 306.10533

volFieldValue component_1 write:
    volAverage(component_1) of T = 307.04463

volFieldValue component_2 write:
    volAverage(component_2) of T = 312.76822

volFieldValue component_3 write:
    volAverage(component_3) of T = 311.78853

volFieldValue component_4 write:
    volAverage(component_4) of T = 314.73271

Time = 13


Solving for fluid region fluid
DILUPBiCGStab:  Solving for Ux, Initial residual = 0.15529579, Final residual = 0.0040212746, No Iterations 2
DILUPBiCGStab:  Solving for Uy, Initial residual = 0.098813977, Final residual = 0.0021770674, No Iterations 2

Solving energy coupled regions
Using lduPrimitiveAssembly: lduAssembly456789
DILUPBiCGStab:  Solving for h, Initial residual = 0.012883467, Final residual = 0.00025466417, No Iterations 1
limitTemperature=limitT, Type=Lower, LimitedCells=0, CellsPercent=0, Tmin=250, UnlimitedTmin=299.99707
limitTemperature=limitT, Type=Upper, LimitedCells=0, CellsPercent=0, Tmax=6000, UnlimitedTmax=300.94313
limitTemperature=limitT, Type=Lower, LimitedCells=0, CellsPercent=0, Tmin=250, UnlimitedTmin=299.99796
limitTemperature=limitT, Type=Upper, LimitedCells=0, CellsPercent=0, Tmax=6000, UnlimitedTmax=304.34388
limitTemperature=limitT, Type=Lower, LimitedCells=0, CellsPercent=0, Tmin=250, UnlimitedTmin=304.35555
limitTemperature=limitT, Type=Upper, LimitedCells=0, CellsPercent=0, Tmax=6000, UnlimitedTmax=307.2327
limitTemperature=limitT, Type=Lower, LimitedCells=0, CellsPercent=0, Tmin=250, UnlimitedTmin=306.40949
limitTemperature=limitT, Type=Upper, LimitedCells=0, CellsPercent=0, Tmax=6000, UnlimitedTmax=307.64817
limitTemperature=limitT, Type=Lower, LimitedCells=0, CellsPercent=0, Tmin=250, UnlimitedTmin=305.81091
limitTemperature=limitT, Type=Upper, LimitedCells=0, CellsPercent=0, Tmax=6000, UnlimitedTmax=316.2553
limitTemperature=limitT, Type=Lower, LimitedCells=0, CellsPercent=0, Tmin=250, UnlimitedTmin=304.60071
limitTemperature=limitT, Type=Upper, LimitedCells=0, CellsPercent=0, Tmax=6000, UnlimitedTmax=315.26884
limitTemperature=limitT, Type=Lower, LimitedCells=0, CellsPercent=0, Tmin=250, UnlimitedTmin=310.82069
limitTemperature=limitT, Type=Upper, LimitedCells=0, CellsPercent=0, Tmax=6000, UnlimitedTmax=317.39614
DICPBiCGStab:  Solving for p_rgh, Initial residual = 0.28139959, Final residual = 0.026218901, No Iterations 14
time step continuity errors : sum local = 0.028298258, global = 0.011013644, cumulative = 0.15650823
Min/max rho:1.1213491 1.1766587
DILUPBiCGStab:  Solving for epsilon, Initial residual = 0.020309824, Final residual = 0.00081334469, No Iterations 1
DILUPBiCGStab:  Solving for k, Initial residual = 0.096988974, Final residual = 0.0011194176, No Iterations 2
ExecutionTime = 1.38 s  ClockTime = 1 s

volFieldValue fluid write:
    volAverage(fluid) of T = 300.01049

volFieldValue pcb write:
    volAverage(pcb) of T = 300.56853

volFieldValue component_0 write:
    volAverage(component_0) of T = 306.52539

volFieldValue component_1 write:
    volAverage(component_1) of T = 307.54467

volFieldValue component_2 write:
    volAverage(component_2) of T = 313.56733

volFieldValue component_3 write:
    volAverage(component_3) of T = 312.48224

volFieldValue component_4 write:
    volAverage(component_4) of T = 315.70501

Time = 14


Solving for fluid region fluid
DILUPBiCGStab:  Solving for Ux, Initial residual = 0.16426928, Final residual = 0.0035939772, No Iterations 2
DILUPBiCGStab:  Solving for Uy, Initial residual = 0.10159822, Final residual = 0.0022504133, No Iterations 2

Solving energy coupled regions
Using lduPrimitiveAssembly: lduAssembly456789
DILUPBiCGStab:  Solving for h, Initial residual = 0.013165878, Final residual = 0.00025041338, No Iterations 1
limitTemperature=limitT, Type=Lower, LimitedCells=0, CellsPercent=0, Tmin=250, UnlimitedTmin=299.99273
limitTemperature=limitT, Type=Upper, LimitedCells=0, CellsPercent=0, Tmax=6000, UnlimitedTmax=301.83473
limitTemperature=limitT, Type=Lower, LimitedCells=0, CellsPercent=0, Tmin=250, UnlimitedTmin=299.9972
limitTemperature=limitT, Type=Upper, LimitedCells=0, CellsPercent=0, Tmax=6000, UnlimitedTmax=304.88716
limitTemperature=limitT, Type=Lower, LimitedCells=0, CellsPercent=0, Tmin=250, UnlimitedTmin=304.42079
limitTemperature=limitT, Type=Upper, LimitedCells=0, CellsPercent=0, Tmax=6000, UnlimitedTmax=307.76634
limitTemperature=limitT, Type=Lower, LimitedCells=0, CellsPercent=0, Tmin=250, UnlimitedTmin=306.83207
limitTemperature=limitT, Type=Upper, LimitedCells=0, CellsPercent=0, Tmax=6000, UnlimitedTmax=308.16641
limitTemperature=limitT, Type=Lower, LimitedCells=0, CellsPercent=0, Tmin=250, UnlimitedTmin=306.13178
limitTemperature=limitT, Type=Upper, LimitedCells=0, CellsPercent=0, Tmax=6000, UnlimitedTmax=317.29645
limitTemperature=limitT, Type=Lower, LimitedCells=0, CellsPercent=0, Tmin=250, UnlimitedTmin=304.63357
limitTemperature=limitT, Type=Upper, LimitedCells=0, CellsPercent=0, Tmax=6000, UnlimitedTmax=316.17129
limitTemperature=limitT, Type=Lower, LimitedCells=0, CellsPercent=0, Tmin=250, UnlimitedTmin=311.37575
limitTemperature=limitT, Type=Upper, LimitedCells=0, CellsPercent=0, Tmax=6000, UnlimitedTmax=318.53137
DICPBiCGStab:  Solving for p_rgh, Initial residual = 0.27405594, Final residual = 0.024696686, No Iterations 29
time step continuity errors : sum local = 0.026855144, global = -0.0034802036, cumulative = 0.15302803
Min/max rho:1.1174114 1.1766586
DILUPBiCGStab:  Solving for epsilon, Initial residual = 0.016261505, Final residual = 0.0006542511, No Iterations 1
DILUPBiCGStab:  Solving for k, Initial residual = 0.082619946, Final residual = 0.0015183871, No Iterations 2
ExecutionTime = 1.47 s  ClockTime = 1 s

volFieldValue fluid write:
    volAverage(fluid) of T = 300.01202

volFieldValue pcb write:
    volAverage(pcb) of T = 300.63814

volFieldValue component_0 write:
    volAverage(component_0) of T = 306.94741

volFieldValue component_1 write:
    volAverage(component_1) of T = 308.05922

volFieldValue component_2 write:
    volAverage(component_2) of T = 314.3592

volFieldValue component_3 write:
    volAverage(component_3) of T = 313.16353

volFieldValue component_4 write:
    volAverage(component_4) of T = 316.65164

Time = 15


Solving for fluid region fluid
DILUPBiCGStab:  Solving for Ux, Initial residual = 0.17068112, Final residual = 0.0030710058, No Iterations 2
DILUPBiCGStab:  Solving for Uy, Initial residual = 0.10112628, Final residual = 0.0023793532, No Iterations 2

Solving energy coupled regions
Using lduPrimitiveAssembly: lduAssembly456789
DILUPBiCGStab:  Solving for h, Initial residual = 0.013430052, Final residual = 0.00025029671, No Iterations 1
limitTemperature=limitT, Type=Lower, LimitedCells=0, CellsPercent=0, Tmin=250, UnlimitedTmin=299.99402
limitTemperature=limitT, Type=Upper, LimitedCells=0, CellsPercent=0, Tmax=6000, UnlimitedTmax=302.40566
limitTemperature=limitT, Type=Lower, LimitedCells=0, CellsPercent=0, Tmin=250, UnlimitedTmin=299.99595
limitTemperature=limitT, Type=Upper, LimitedCells=0, CellsPercent=0, Tmax=6000, UnlimitedTmax=305.44539
limitTemperature=limitT, Type=Lower, LimitedCells=0, CellsPercent=0, Tmin=250, UnlimitedTmin=304.6771
limitTemperature=limitT, Type=Upper, LimitedCells=0, CellsPercent=0, Tmax=6000, UnlimitedTmax=308.29162
limitTemperature=limitT, Type=Lower, LimitedCells=0, CellsPercent=0, Tmin=250, UnlimitedTmin=307.27054
limitTemperature=limitT, Type=Upper, LimitedCells=0, CellsPercent=0, Tmax=6000, UnlimitedTmax=308.68985
limitTemperature=limitT, Type=Lower, LimitedCells=0, CellsPercent=0, Tmin=250, UnlimitedTmin=306.42471
limitTemperature=limitT, Type=Upper, LimitedCells=0, CellsPercent=0, Tmax=6000, UnlimitedTmax=318.31008
limitTemperature=limitT, Type=Lower, LimitedCells=0, CellsPercent=0, Tmin=250, UnlimitedTmin=304.58872
limitTemperature=limitT, Type=Upper, LimitedCells=0, CellsPercent=0, Tmax=6000, UnlimitedTmax=317.03939
limitTemperature=limitT, Type=Lower, LimitedCells=0, CellsPercent=0, Tmin=250, UnlimitedTmin=311.87372
limitTemperature=limitT, Type=Upper, LimitedCells=0, CellsPercent=0, Tmax=6000, UnlimitedTmax=319.64593
DICPBiCGStab:  Solving for p_rgh, Initial residual = 0.26218896, Final residual = 0.026135484, No Iterations 12
time step continuity errors : sum local = 0.031171296, global = -0.001098895, cumulative = 0.15192913
Min/max rho:1.1135086 1.1766588
DILUPBiCGStab:  Solving for epsilon, Initial residual = 0.012918603, Final residual = 0.00052219846, No Iterations 1
DILUPBiCGStab:  Solving for k, Initial residual = 0.072618544, Final residual = 0.0010823371, No Iterations 2
ExecutionTime = 1.5 s  ClockTime = 1 s

volFieldValue fluid write:
    volAverage(fluid) of T = 300.01351

volFieldValue pcb write:
    volAverage(pcb) of T = 300.71016

volFieldValue component_0 write:
    volAverage(component_0) of T = 307.36949

volFieldValue component_1 write:
    volAverage(component_1) of T = 308.56322

volFieldValue component_2 write:
    volAverage(component_2) of T = 315.17393

volFieldValue component_3 write:
    volAverage(component_3) of T = 313.85911

volFieldValue component_4 write:
    volAverage(component_4) of T = 317.54719

Time = 16


Solving for fluid region fluid
DILUPBiCGStab:  Solving for Ux, Initial residual = 0.15986623, Final residual = 0.0030032642, No Iterations 2
DILUPBiCGStab:  Solving for Uy, Initial residual = 0.080959577, Final residual = 0.0016342266, No Iterations 2

Solving energy coupled regions
Using lduPrimitiveAssembly: lduAssembly456789
DILUPBiCGStab:  Solving for h, Initial residual = 0.013682978, Final residual = 0.00027429428, No Iterations 1
limitTemperature=limitT, Type=Lower, LimitedCells=0, CellsPercent=0, Tmin=250, UnlimitedTmin=299.99258
limitTemperature=limitT, Type=Upper, LimitedCells=0, CellsPercent=0, Tmax=6000, UnlimitedTmax=303.05273
limitTemperature=limitT, Type=Lower, LimitedCells=0, CellsPercent=0, Tmin=250, UnlimitedTmin=299.99511
limitTemperature=limitT, Type=Upper, LimitedCells=0, CellsPercent=0, Tmax=6000, UnlimitedTmax=306.01649
limitTemperature=limitT, Type=Lower, LimitedCells=0, CellsPercent=0, Tmin=250, UnlimitedTmin=305.03782
limitTemperature=limitT, Type=Upper, LimitedCells=0, CellsPercent=0, Tmax=6000, UnlimitedTmax=308.80844
limitTemperature=limitT, Type=Lower, LimitedCells=0, CellsPercent=0, Tmin=250, UnlimitedTmin=307.71044
limitTemperature=limitT, Type=Upper, LimitedCells=0, CellsPercent=0, Tmax=6000, UnlimitedTmax=309.21346
limitTemperature=limitT, Type=Lower, LimitedCells=0, CellsPercent=0, Tmin=250, UnlimitedTmin=306.77495
limitTemperature=limitT, Type=Upper, LimitedCells=0, CellsPercent=0, Tmax=6000, UnlimitedTmax=319.30036
limitTemperature=limitT, Type=Lower, LimitedCells=0, CellsPercent=0, Tmin=250, UnlimitedTmin=304.70901
limitTemperature=limitT, Type=Upper, LimitedCells=0, CellsPercent=0, Tmax=6000, UnlimitedTmax=317.88905
limitTemperature=limitT, Type=Lower, LimitedCells=0, CellsPercent=0, Tmin=250, UnlimitedTmin=312.32394
limitTemperature=limitT, Type=Upper, LimitedCells=0, CellsPercent=0, Tmax=6000, UnlimitedTmax=320.73482
DICPBiCGStab:  Solving for p_rgh, Initial residual = 0.27886286, Final residual = 0.027791429, No Iterations 15
time step continuity errors : sum local = 0.033458781, global = -0.0098153839, cumulative = 0.14211375
Min/max rho:1.1097009 1.1766592
DILUPBiCGStab:  Solving for epsilon, Initial residual = 0.010716897, Final residual = 0.0004323455, No Iterations 1
DILUPBiCGStab:  Solving for k, Initial residual = 0.063676898, Final residual = 0.00082502715, No Iterations 2
ExecutionTime = 1.58 s  ClockTime = 1 s

volFieldValue fluid write:
    volAverage(fluid) of T = 300.01515

volFieldValue pcb write:
    volAverage(pcb) of T = 300.78429

volFieldValue component_0 write:
    volAverage(component_0) of T = 307.78935

volFieldValue component_1 write:
    volAverage(component_1) of T = 309.03622

volFieldValue component_2 write:
    volAverage(component_2) of T = 315.95746

volFieldValue component_3 write:
    volAverage(component_3) of T = 314.56817

volFieldValue component_4 write:
    volAverage(component_4) of T = 318.41544

Time = 17


Solving for fluid region fluid
DILUPBiCGStab:  Solving for Ux, Initial residual = 0.14471313, Final residual = 0.0025820011, No Iterations 2
DILUPBiCGStab:  Solving for Uy, Initial residual = 0.0663125, Final residual = 0.0012885197, No Iterations 2

Solving energy coupled regions
Using lduPrimitiveAssembly: lduAssembly456789
DILUPBiCGStab:  Solving for h, Initial residual = 0.014097154, Final residual = 0.00030689519, No Iterations 1
limitTemperature=limitT, Type=Lower, LimitedCells=0, CellsPercent=0, Tmin=250, UnlimitedTmin=299.99247
limitTemperature=limitT, Type=Upper, LimitedCells=0, CellsPercent=0, Tmax=6000, UnlimitedTmax=302.39646
limitTemperature=limitT, Type=Lower, LimitedCells=0, CellsPercent=0, Tmin=250, UnlimitedTmin=299.99489
limitTemperature=limitT, Type=Upper, LimitedCells=0, CellsPercent=0, Tmax=6000, UnlimitedTmax=306.59848
limitTemperature=limitT, Type=Lower, LimitedCells=0, CellsPercent=0, Tmin=250, UnlimitedTmin=305.50052
limitTemperature=limitT, Type=Upper, LimitedCells=0, CellsPercent=0, Tmax=6000, UnlimitedTmax=309.31625
limitTemperature=limitT, Type=Lower, LimitedCells=0, CellsPercent=0, Tmin=250, UnlimitedTmin=308.02785
limitTemperature=limitT, Type=Upper, LimitedCells=0, CellsPercent=0, Tmax=6000, UnlimitedTmax=309.73404
limitTemperature=limitT, Type=Lower, LimitedCells=0, CellsPercent=0, Tmin=250, UnlimitedTmin=307.31243
limitTemperature=limitT, Type=Upper, LimitedCells=0, CellsPercent=0, Tmax=6000, UnlimitedTmax=320.27033
limitTemperature=limitT, Type=Lower, LimitedCells=0, CellsPercent=0, Tmin=250, UnlimitedTmin=304.78888
limitTemperature=limitT, Type=Upper, LimitedCells=0, CellsPercent=0, Tmax=6000, UnlimitedTmax=318.71822
limitTemperature=limitT, Type=Lower, LimitedCells=0, CellsPercent=0, Tmin=250, UnlimitedTmin=312.77854
limitTemperature=limitT, Type=Upper, LimitedCells=0, CellsPercent=0, Tmax=6000, UnlimitedTmax=321.79067
DICPBiCGStab:  Solving for p_rgh, Initial residual = 0.26096374, Final residual = 0.015335936, No Iterations 112
time step continuity errors : sum local = 0.019380711, global = 0.008883213, cumulative = 0.15099696
Min/max rho:1.1060352 1.1766594
DILUPBiCGStab:  Solving for epsilon, Initial residual = 0.0091491641, Final residual = 0.00044556448, No Iterations 1
DILUPBiCGStab:  Solving for k, Initial residual = 0.056972765, Final residual = 0.0012649467, No Iterations 2
ExecutionTime = 1.75 s  ClockTime = 1 s

volFieldValue fluid write:
    volAverage(fluid) of T = 300.01729

volFieldValue pcb write:
    volAverage(pcb) of T = 300.85981

volFieldValue component_0 write:
    volAverage(component_0) of T = 308.20774

volFieldValue component_1 write:
    volAverage(component_1) of T = 309.48499

volFieldValue component_2 write:
    volAverage(component_2) of T = 316.67026

volFieldValue component_3 write:
    volAverage(component_3) of T = 315.26087

volFieldValue component_4 write:
    volAverage(component_4) of T = 319.25192

Time = 18


Solving for fluid region fluid
DILUPBiCGStab:  Solving for Ux, Initial residual = 0.085270463, Final residual = 0.0030166241, No Iterations 2
DILUPBiCGStab:  Solving for Uy, Initial residual = 0.081570219, Final residual = 0.0018142378, No Iterations 2

Solving energy coupled regions
Using lduPrimitiveAssembly: lduAssembly456789
DILUPBiCGStab:  Solving for h, Initial residual = 0.014828799, Final residual = 0.00044245049, No Iterations 1
limitTemperature=limitT, Type=Lower, LimitedCells=0, CellsPercent=0, Tmin=250, UnlimitedTmin=299.99327
limitTemperature=limitT, Type=Upper, LimitedCells=0, CellsPercent=0, Tmax=6000, UnlimitedTmax=302.06244
limitTemperature=limitT, Type=Lower, LimitedCells=0, CellsPercent=0, Tmin=250, UnlimitedTmin=299.99531
limitTemperature=limitT, Type=Upper, LimitedCells=0, CellsPercent=0, Tmax=6000, UnlimitedTmax=307.18957
limitTemperature=limitT, Type=Lower, LimitedCells=0, CellsPercent=0, Tmin=250, UnlimitedTmin=305.92921
limitTemperature=limitT, Type=Upper, LimitedCells=0, CellsPercent=0, Tmax=6000, UnlimitedTmax=309.81456
limitTemperature=limitT, Type=Lower, LimitedCells=0, CellsPercent=0, Tmin=250, UnlimitedTmin=308.22529
limitTemperature=limitT, Type=Upper, LimitedCells=0, CellsPercent=0, Tmax=6000, UnlimitedTmax=310.24067
limitTemperature=limitT, Type=Lower, LimitedCells=0, CellsPercent=0, Tmin=250, UnlimitedTmin=307.2174
limitTemperature=limitT, Type=Upper, LimitedCells=0, CellsPercent=0, Tmax=6000, UnlimitedTmax=321.22417
limitTemperature=limitT, Type=Lower, LimitedCells=0, CellsPercent=0, Tmin=250, UnlimitedTmin=304.49051
limitTemperature=limitT, Type=Upper, LimitedCells=0, CellsPercent=0, Tmax=6000, UnlimitedTmax=319.52546
limitTemperature=limitT, Type=Lower, LimitedCells=0, CellsPercent=0, Tmin=250, UnlimitedTmin=313.2469
limitTemperature=limitT, Type=Upper, LimitedCells=0, CellsPercent=0, Tmax=6000, UnlimitedTmax=322.80964
DICPBiCGStab:  Solving for p_rgh, Initial residual = 0.40619016, Final residual = 0.039570809, No Iterations 16
time step continuity errors : sum local = 0.028832051, global = -0.014409686, cumulative = 0.13658728
Min/max rho:1.1025028 1.1766592
DILUPBiCGStab:  Solving for epsilon, Initial residual = 0.0080114518, Final residual = 0.0003177853, No Iterations 1
DILUPBiCGStab:  Solving for k, Initial residual = 0.048999204, Final residual = 0.00057708197, No Iterations 2
ExecutionTime = 1.8 s  ClockTime = 1 s

volFieldValue fluid write:
    volAverage(fluid) of T = 300.01915

volFieldValue pcb write:
    volAverage(pcb) of T = 300.93794

volFieldValue component_0 write:
    volAverage(component_0) of T = 308.61978

volFieldValue component_1 write:
    volAverage(component_1) of T = 309.91101

volFieldValue component_2 write:
    volAverage(component_2) of T = 317.29638

volFieldValue component_3 write:
    volAverage(component_3) of T = 315.86269

volFieldValue component_4 write:
    volAverage(component_4) of T = 320.05383

Time = 19


Solving for fluid region fluid
DILUPBiCGStab:  Solving for Ux, Initial residual = 0.087696004, Final residual = 0.002058145, No Iterations 2
DILUPBiCGStab:  Solving for Uy, Initial residual = 0.0929947, Final residual = 0.0018527784, No Iterations 2

Solving energy coupled regions
Using lduPrimitiveAssembly: lduAssembly456789
DILUPBiCGStab:  Solving for h, Initial residual = 0.014151686, Final residual = 0.00035426774, No Iterations 1
limitTemperature=limitT, Type=Lower, LimitedCells=0, CellsPercent=0, Tmin=250, UnlimitedTmin=299.99495
limitTemperature=limitT, Type=Upper, LimitedCells=0, CellsPercent=0, Tmax=6000, UnlimitedTmax=302.2791
limitTemperature=limitT, Type=Lower, LimitedCells=0, CellsPercent=0, Tmin=250, UnlimitedTmin=299.99557
limitTemperature=limitT, Type=Upper, LimitedCells=0, CellsPercent=0, Tmax=6000, UnlimitedTmax=307.79592
limitTemperature=limitT, Type=Lower, LimitedCells=0, CellsPercent=0, Tmin=250, UnlimitedTmin=306.11378
limitTemperature=limitT, Type=Upper, LimitedCells=0, CellsPercent=0, Tmax=6000, UnlimitedTmax=310.30465
limitTemperature=limitT, Type=Lower, LimitedCells=0, CellsPercent=0, Tmin=250, UnlimitedTmin=308.45116
limitTemperature=limitT, Type=Upper, LimitedCells=0, CellsPercent=0, Tmax=6000, UnlimitedTmax=310.74893
limitTemperature=limitT, Type=Lower, LimitedCells=0, CellsPercent=0, Tmin=250, UnlimitedTmin=307.39441
limitTemperature=limitT, Type=Upper, LimitedCells=0, CellsPercent=0, Tmax=6000, UnlimitedTmax=322.16363
limitTemperature=limitT, Type=Lower, LimitedCells=0, CellsPercent=0, Tmin=250, UnlimitedTmin=303.61099
limitTemperature=limitT, Type=Upper, LimitedCells=0, CellsPercent=0, Tmax=6000, UnlimitedTmax=320.33843
limitTemperature=limitT, Type=Lower, LimitedCells=0, CellsPercent=0, Tmin=250, UnlimitedTmin=313.68236
limitTemperature=limitT, Type=Upper, LimitedCells=0, CellsPercent=0, Tmax=6000, UnlimitedTmax=323.78963
DICPBiCGStab:  Solving for p_rgh, Initial residual = 0.30354958, Final residual = 0.026729135, No Iterations 15
time step continuity errors : sum local = 0.021298074, global = -0.011946293, cumulative = 0.12464098
Min/max rho:1.0991815 1.1767084
DILUPBiCGStab:  Solving for epsilon, Initial residual = 0.0065916744, Final residual = 0.00027982004, No Iterations 1
DILUPBiCGStab:  Solving for k, Initial residual = 0.041976537, Final residual = 0.0006539049, No Iterations 2
ExecutionTime = 1.87 s  ClockTime = 2 s

volFieldValue fluid write:
    volAverage(fluid) of T = 300.02063

volFieldValue pcb write:
    volAverage(pcb) of T = 301.01623

volFieldValue component_0 write:
    volAverage(component_0) of T = 309.03086

volFieldValue component_1 write:
    volAverage(component_1) of T = 310.3118

volFieldValue component_2 write:
    volAverage(component_2) of T = 317.85209

volFieldValue component_3 write:
    volAverage(component_3) of T = 316.48385

volFieldValue component_4 write:
    volAverage(component_4) of T = 320.82609

Time = 20


Solving for fluid region fluid
DILUPBiCGStab:  Solving for Ux, Initial residual = 0.086569908, Final residual = 0.0022343565, No Iterations 2
DILUPBiCGStab:  Solving for Uy, Initial residual = 0.094682821, Final residual = 0.0017993257, No Iterations 2

Solving energy coupled regions
Using lduPrimitiveAssembly: lduAssembly456789
DILUPBiCGStab:  Solving for h, Initial residual = 0.013707124, Final residual = 0.00031299276, No Iterations 1
limitTemperature=limitT, Type=Lower, LimitedCells=0, CellsPercent=0, Tmin=250, UnlimitedTmin=299.9951
limitTemperature=limitT, Type=Upper, LimitedCells=0, CellsPercent=0, Tmax=6000, UnlimitedTmax=301.65498
limitTemperature=limitT, Type=Lower, LimitedCells=0, CellsPercent=0, Tmin=250, UnlimitedTmin=299.99596
limitTemperature=limitT, Type=Upper, LimitedCells=0, CellsPercent=0, Tmax=6000, UnlimitedTmax=308.39973
limitTemperature=limitT, Type=Lower, LimitedCells=0, CellsPercent=0, Tmin=250, UnlimitedTmin=306.28641
limitTemperature=limitT, Type=Upper, LimitedCells=0, CellsPercent=0, Tmax=6000, UnlimitedTmax=310.78415
limitTemperature=limitT, Type=Lower, LimitedCells=0, CellsPercent=0, Tmin=250, UnlimitedTmin=308.68131
limitTemperature=limitT, Type=Upper, LimitedCells=0, CellsPercent=0, Tmax=6000, UnlimitedTmax=311.21304
limitTemperature=limitT, Type=Lower, LimitedCells=0, CellsPercent=0, Tmin=250, UnlimitedTmin=306.73558
limitTemperature=limitT, Type=Upper, LimitedCells=0, CellsPercent=0, Tmax=6000, UnlimitedTmax=323.08217
limitTemperature=limitT, Type=Lower, LimitedCells=0, CellsPercent=0, Tmin=250, UnlimitedTmin=303.85008
limitTemperature=limitT, Type=Upper, LimitedCells=0, CellsPercent=0, Tmax=6000, UnlimitedTmax=321.14497
limitTemperature=limitT, Type=Lower, LimitedCells=0, CellsPercent=0, Tmin=250, UnlimitedTmin=314.16205
limitTemperature=limitT, Type=Upper, LimitedCells=0, CellsPercent=0, Tmax=6000, UnlimitedTmax=324.71838
DICPBiCGStab:  Solving for p_rgh, Initial residual = 0.29203217, Final residual = 0.02895572, No Iterations 17
time step continuity errors : sum local = 0.022322326, global = -0.010576832, cumulative = 0.11406415
Min/max rho:1.0964304 1.1767395
DILUPBiCGStab:  Solving for epsilon, Initial residual = 0.0054882787, Final residual = 0.00024113758, No Iterations 1
DILUPBiCGStab:  Solving for k, Initial residual = 0.037825153, Final residual = 0.00068094738, No Iterations 2
ExecutionTime = 1.96 s  ClockTime = 2 s

volFieldValue fluid write:
    volAverage(fluid) of T = 300.0222

volFieldValue pcb write:
    volAverage(pcb) of T = 301.09567

volFieldValue component_0 write:
    volAverage(component_0) of T = 309.44481

volFieldValue component_1 write:
    volAverage(component_1) of T = 310.71871

volFieldValue component_2 write:
    volAverage(component_2) of T = 318.41979

volFieldValue component_3 write:
    volAverage(component_3) of T = 317.12571

volFieldValue component_4 write:
    volAverage(component_4) of T = 321.57728

Time = 21


Solving for fluid region fluid
DILUPBiCGStab:  Solving for Ux, Initial residual = 0.088551032, Final residual = 0.0017935149, No Iterations 2
DILUPBiCGStab:  Solving for Uy, Initial residual = 0.08351995, Final residual = 0.0015686891, No Iterations 2

Solving energy coupled regions
Using lduPrimitiveAssembly: lduAssembly456789
DILUPBiCGStab:  Solving for h, Initial residual = 0.013370975, Final residual = 0.00029046733, No Iterations 1
limitTemperature=limitT, Type=Lower, LimitedCells=0, CellsPercent=0, Tmin=250, UnlimitedTmin=299.99645
limitTemperature=limitT, Type=Upper, LimitedCells=0, CellsPercent=0, Tmax=6000, UnlimitedTmax=301.46067
limitTemperature=limitT, Type=Lower, LimitedCells=0, CellsPercent=0, Tmin=250, UnlimitedTmin=299.99658
limitTemperature=limitT, Type=Upper, LimitedCells=0, CellsPercent=0, Tmax=6000, UnlimitedTmax=309.00327
limitTemperature=limitT, Type=Lower, LimitedCells=0, CellsPercent=0, Tmin=250, UnlimitedTmin=306.44143
limitTemperature=limitT, Type=Upper, LimitedCells=0, CellsPercent=0, Tmax=6000, UnlimitedTmax=311.25888
limitTemperature=limitT, Type=Lower, LimitedCells=0, CellsPercent=0, Tmin=250, UnlimitedTmin=309.01433
limitTemperature=limitT, Type=Upper, LimitedCells=0, CellsPercent=0, Tmax=6000, UnlimitedTmax=311.68105
limitTemperature=limitT, Type=Lower, LimitedCells=0, CellsPercent=0, Tmin=250, UnlimitedTmin=306.60208
limitTemperature=limitT, Type=Upper, LimitedCells=0, CellsPercent=0, Tmax=6000, UnlimitedTmax=323.97624
limitTemperature=limitT, Type=Lower, LimitedCells=0, CellsPercent=0, Tmin=250, UnlimitedTmin=304.78932
limitTemperature=limitT, Type=Upper, LimitedCells=0, CellsPercent=0, Tmax=6000, UnlimitedTmax=321.94611
limitTemperature=limitT, Type=Lower, LimitedCells=0, CellsPercent=0, Tmin=250, UnlimitedTmin=314.60336
limitTemperature=limitT, Type=Upper, LimitedCells=0, CellsPercent=0, Tmax=6000, UnlimitedTmax=325.60314
DICPBiCGStab:  Solving for p_rgh, Initial residual = 0.30241217, Final residual = 0.029908174, No Iterations 15
time step continuity errors : sum local = 0.023103836, global = -0.0095778337, cumulative = 0.10448632
Min/max rho:1.0941592 1.1767579
DILUPBiCGStab:  Solving for epsilon, Initial residual = 0.0049309752, Final residual = 0.00023572733, No Iterations 1
DILUPBiCGStab:  Solving for k, Initial residual = 0.0339183, Final residual = 0.00087473853, No Iterations 2
ExecutionTime = 1.99 s  ClockTime = 2 s

volFieldValue fluid write:
    volAverage(fluid) of T = 300.02373

volFieldValue pcb write:
    volAverage(pcb) of T = 301.1767

volFieldValue component_0 write:
    volAverage(component_0) of T = 309.84589

volFieldValue component_1 write:
    volAverage(component_1) of T = 311.12838

volFieldValue component_2 write:
    volAverage(component_2) of T = 318.99943

volFieldValue component_3 write:
    volAverage(component_3) of T = 317.76708

volFieldValue component_4 write:
    volAverage(component_4) of T = 322.28185

Time = 22


Solving for fluid region fluid
DILUPBiCGStab:  Solving for Ux, Initial residual = 0.08583122, Final residual = 0.0017181, No Iterations 2
DILUPBiCGStab:  Solving for Uy, Initial residual = 0.076695942, Final residual = 0.0013904275, No Iterations 2

Solving energy coupled regions
Using lduPrimitiveAssembly: lduAssembly456789
DILUPBiCGStab:  Solving for h, Initial residual = 0.013369231, Final residual = 0.00030610348, No Iterations 1
limitTemperature=limitT, Type=Lower, LimitedCells=0, CellsPercent=0, Tmin=250, UnlimitedTmin=299.99791
limitTemperature=limitT, Type=Upper, LimitedCells=0, CellsPercent=0, Tmax=6000, UnlimitedTmax=301.44445
limitTemperature=limitT, Type=Lower, LimitedCells=0, CellsPercent=0, Tmin=250, UnlimitedTmin=299.99746
limitTemperature=limitT, Type=Upper, LimitedCells=0, CellsPercent=0, Tmax=6000, UnlimitedTmax=309.60508
limitTemperature=limitT, Type=Lower, LimitedCells=0, CellsPercent=0, Tmin=250, UnlimitedTmin=306.59765
limitTemperature=limitT, Type=Upper, LimitedCells=0, CellsPercent=0, Tmax=6000, UnlimitedTmax=311.7269
limitTemperature=limitT, Type=Lower, LimitedCells=0, CellsPercent=0, Tmin=250, UnlimitedTmin=309.37587
limitTemperature=limitT, Type=Upper, LimitedCells=0, CellsPercent=0, Tmax=6000, UnlimitedTmax=312.13942
limitTemperature=limitT, Type=Lower, LimitedCells=0, CellsPercent=0, Tmin=250, UnlimitedTmin=307.61107
limitTemperature=limitT, Type=Upper, LimitedCells=0, CellsPercent=0, Tmax=6000, UnlimitedTmax=324.83028
limitTemperature=limitT, Type=Lower, LimitedCells=0, CellsPercent=0, Tmin=250, UnlimitedTmin=305.57176
limitTemperature=limitT, Type=Upper, LimitedCells=0, CellsPercent=0, Tmax=6000, UnlimitedTmax=322.73275
limitTemperature=limitT, Type=Lower, LimitedCells=0, CellsPercent=0, Tmin=250, UnlimitedTmin=314.99056
limitTemperature=limitT, Type=Upper, LimitedCells=0, CellsPercent=0, Tmax=6000, UnlimitedTmax=326.43994
DICPBiCGStab:  Solving for p_rgh, Initial residual = 0.3266107, Final residual = 0.032514587, No Iterations 16
time step continuity errors : sum local = 0.025905592, global = -0.007039688, cumulative = 0.09744663
Min/max rho:1.0922093 1.1767703
DILUPBiCGStab:  Solving for epsilon, Initial residual = 0.0048748692, Final residual = 0.00020080473, No Iterations 1
DILUPBiCGStab:  Solving for k, Initial residual = 0.033974876, Final residual = 0.00092947542, No Iterations 2
ExecutionTime = 2.07 s  ClockTime = 2 s

volFieldValue fluid write:
    volAverage(fluid) of T = 300.02549

volFieldValue pcb write:
    volAverage(pcb) of T = 301.26007

volFieldValue component_0 write:
    volAverage(component_0) of T = 310.2317

volFieldValue component_1 write:
    volAverage(component_1) of T = 311.53917

volFieldValue component_2 write:
    volAverage(component_2) of T = 319.57849

volFieldValue component_3 write:
    volAverage(component_3) of T = 318.37499

volFieldValue component_4 write:
    volAverage(component_4) of T = 322.93482

Time = 23


Solving for fluid region fluid
DILUPBiCGStab:  Solving for Ux, Initial residual = 0.084114628, Final residual = 0.0001727545, No Iterations 3
DILUPBiCGStab:  Solving for Uy, Initial residual = 0.080887263, Final residual = 0.0015882807, No Iterations 2

Solving energy coupled regions
Using lduPrimitiveAssembly: lduAssembly456789
DILUPBiCGStab:  Solving for h, Initial residual = 0.013643837, Final residual = 0.00036670584, No Iterations 1
limitTemperature=limitT, Type=Lower, LimitedCells=0, CellsPercent=0, Tmin=250, UnlimitedTmin=299.99813
limitTemperature=limitT, Type=Upper, LimitedCells=0, CellsPercent=0, Tmax=6000, UnlimitedTmax=301.91609
limitTemperature=limitT, Type=Lower, LimitedCells=0, CellsPercent=0, Tmin=250, UnlimitedTmin=299.99824
limitTemperature=limitT, Type=Upper, LimitedCells=0, CellsPercent=0, Tmax=6000, UnlimitedTmax=310.20625
limitTemperature=limitT, Type=Lower, LimitedCells=0, CellsPercent=0, Tmin=250, UnlimitedTmin=306.76504
limitTemperature=limitT, Type=Upper, LimitedCells=0, CellsPercent=0, Tmax=6000, UnlimitedTmax=312.18854
limitTemperature=limitT, Type=Lower, LimitedCells=0, CellsPercent=0, Tmin=250, UnlimitedTmin=309.71734
limitTemperature=limitT, Type=Upper, LimitedCells=0, CellsPercent=0, Tmax=6000, UnlimitedTmax=312.58858
limitTemperature=limitT, Type=Lower, LimitedCells=0, CellsPercent=0, Tmin=250, UnlimitedTmin=308.28292
limitTemperature=limitT, Type=Upper, LimitedCells=0, CellsPercent=0, Tmax=6000, UnlimitedTmax=325.6398
limitTemperature=limitT, Type=Lower, LimitedCells=0, CellsPercent=0, Tmin=250, UnlimitedTmin=305.76317
limitTemperature=limitT, Type=Upper, LimitedCells=0, CellsPercent=0, Tmax=6000, UnlimitedTmax=323.50208
limitTemperature=limitT, Type=Lower, LimitedCells=0, CellsPercent=0, Tmin=250, UnlimitedTmin=315.33785
limitTemperature=limitT, Type=Upper, LimitedCells=0, CellsPercent=0, Tmax=6000, UnlimitedTmax=327.23358
DICPBiCGStab:  Solving for p_rgh, Initial residual = 0.31562117, Final residual = 0.031465896, No Iterations 21
time step continuity errors : sum local = 0.024210944, global = -0.0024983956, cumulative = 0.094948235
Min/max rho:1.0903582 1.1767777
DILUPBiCGStab:  Solving for epsilon, Initial residual = 0.0043066653, Final residual = 0.00018639886, No Iterations 1
DILUPBiCGStab:  Solving for k, Initial residual = 0.030025241, Final residual = 0.00047912467, No Iterations 2
ExecutionTime = 2.16 s  ClockTime = 2 s

volFieldValue fluid write:
    volAverage(fluid) of T = 300.02707

volFieldValue pcb write:
    volAverage(pcb) of T = 301.34463

volFieldValue component_0 write:
    volAverage(component_0) of T = 310.6108

volFieldValue component_1 write:
    volAverage(component_1) of T = 311.94745

volFieldValue component_2 write:
    volAverage(component_2) of T = 320.10593

volFieldValue component_3 write:
    volAverage(component_3) of T = 318.89988

volFieldValue component_4 write:
    volAverage(component_4) of T = 323.53564

Time = 24


Solving for fluid region fluid
DILUPBiCGStab:  Solving for Ux, Initial residual = 0.075843574, Final residual = 0.0011587936, No Iterations 2
DILUPBiCGStab:  Solving for Uy, Initial residual = 0.087930369, Final residual = 0.001722264, No Iterations 2

Solving energy coupled regions
Using lduPrimitiveAssembly: lduAssembly456789
DILUPBiCGStab:  Solving for h, Initial residual = 0.013262213, Final residual = 0.00032804456, No Iterations 1
limitTemperature=limitT, Type=Lower, LimitedCells=0, CellsPercent=0, Tmin=250, UnlimitedTmin=299.99812
limitTemperature=limitT, Type=Upper, LimitedCells=0, CellsPercent=0, Tmax=6000, UnlimitedTmax=301.56636
limitTemperature=limitT, Type=Lower, LimitedCells=0, CellsPercent=0, Tmin=250, UnlimitedTmin=299.99871
limitTemperature=limitT, Type=Upper, LimitedCells=0, CellsPercent=0, Tmax=6000, UnlimitedTmax=310.80517
limitTemperature=limitT, Type=Lower, LimitedCells=0, CellsPercent=0, Tmin=250, UnlimitedTmin=306.94581
limitTemperature=limitT, Type=Upper, LimitedCells=0, CellsPercent=0, Tmax=6000, UnlimitedTmax=312.64186
limitTemperature=limitT, Type=Lower, LimitedCells=0, CellsPercent=0, Tmin=250, UnlimitedTmin=310.02374
limitTemperature=limitT, Type=Upper, LimitedCells=0, CellsPercent=0, Tmax=6000, UnlimitedTmax=313.02895
limitTemperature=limitT, Type=Lower, LimitedCells=0, CellsPercent=0, Tmin=250, UnlimitedTmin=308.33509
limitTemperature=limitT, Type=Upper, LimitedCells=0, CellsPercent=0, Tmax=6000, UnlimitedTmax=326.40625
limitTemperature=limitT, Type=Lower, LimitedCells=0, CellsPercent=0, Tmin=250, UnlimitedTmin=305.20863
limitTemperature=limitT, Type=Upper, LimitedCells=0, CellsPercent=0, Tmax=6000, UnlimitedTmax=324.24782
limitTemperature=limitT, Type=Lower, LimitedCells=0, CellsPercent=0, Tmin=250, UnlimitedTmin=315.67232
limitTemperature=limitT, Type=Upper, LimitedCells=0, CellsPercent=0, Tmax=6000, UnlimitedTmax=327.98643
DICPBiCGStab:  Solving for p_rgh, Initial residual = 0.2988943, Final residual = 0.02480082, No Iterations 39
time step continuity errors : sum local = 0.018210336, global = 0.0059731073, cumulative = 0.10092134
Min/max rho:1.0880081 1.1767807
DILUPBiCGStab:  Solving for epsilon, Initial residual = 0.0040984361, Final residual = 0.00017523381, No Iterations 1
DILUPBiCGStab:  Solving for k, Initial residual = 0.028246772, Final residual = 0.00054462175, No Iterations 2
ExecutionTime = 2.25 s  ClockTime = 2 s

volFieldValue fluid write:
    volAverage(fluid) of T = 300.02876

volFieldValue pcb write:
    volAverage(pcb) of T = 301.43041

volFieldValue component_0 write:
    volAverage(component_0) of T = 310.98938

volFieldValue component_1 write:
    volAverage(component_1) of T = 312.34988

volFieldValue component_2 write:
    volAverage(component_2) of T = 320.59184

volFieldValue component_3 write:
    volAverage(component_3) of T = 319.37039

volFieldValue component_4 write:
    volAverage(component_4) of T = 324.1129

Time = 25


Solving for fluid region fluid
DILUPBiCGStab:  Solving for Ux, Initial residual = 0.070229069, Final residual = 0.0014337386, No Iterations 2
DILUPBiCGStab:  Solving for Uy, Initial residual = 0.073707573, Final residual = 0.0018379798, No Iterations 2

Solving energy coupled regions
Using lduPrimitiveAssembly: lduAssembly456789
DILUPBiCGStab:  Solving for h, Initial residual = 0.013068414, Final residual = 0.000338655, No Iterations 1
limitTemperature=limitT, Type=Lower, LimitedCells=0, CellsPercent=0, Tmin=250, UnlimitedTmin=299.9981
limitTemperature=limitT, Type=Upper, LimitedCells=0, CellsPercent=0, Tmax=6000, UnlimitedTmax=301.75879
limitTemperature=limitT, Type=Lower, LimitedCells=0, CellsPercent=0, Tmin=250, UnlimitedTmin=299.99902
limitTemperature=limitT, Type=Upper, LimitedCells=0, CellsPercent=0, Tmax=6000, UnlimitedTmax=311.39917
limitTemperature=limitT, Type=Lower, LimitedCells=0, CellsPercent=0, Tmin=250, UnlimitedTmin=307.14083
[...]
bounding k, min: -2.3028758 max: 9.8261239e+09 average: 2608771.6
ExecutionTime = 59.56 s  ClockTime = 59 s

volFieldValue fluid write:
    volAverage(fluid) of T = 1621.4377

volFieldValue pcb write:
    volAverage(pcb) of T = 3168.2236

volFieldValue component_0 write:
    volAverage(component_0) of T = 337.41314

volFieldValue component_1 write:
    volAverage(component_1) of T = 2378.073

volFieldValue component_2 write:
    volAverage(component_2) of T = 6000

volFieldValue component_3 write:
    volAverage(component_3) of T = 6000

volFieldValue component_4 write:
    volAverage(component_4) of T = 6000

Time = 911


Solving for fluid region fluid
DILUPBiCGStab:  Solving for Ux, Initial residual = 0.52623883, Final residual = 0.022318876, No Iterations 1
DILUPBiCGStab:  Solving for Uy, Initial residual = 0.46223789, Final residual = 0.023023284, No Iterations 1

Solving energy coupled regions
Using lduPrimitiveAssembly: lduAssembly456789
DILUPBiCGStab:  Solving for h, Initial residual = 0.99999998, Final residual = 0.018297992, No Iterations 2
limitTemperature=limitT, Type=Lower, LimitedCells=1857, CellsPercent=19.63, Tmin=250, UnlimitedTmin=250
limitTemperature=limitT, Type=Upper, LimitedCells=2540, CellsPercent=26.85, Tmax=6000, UnlimitedTmax=6000
limitTemperature=limitT, Type=Lower, LimitedCells=58, CellsPercent=10.58, Tmin=250, UnlimitedTmin=250
limitTemperature=limitT, Type=Upper, LimitedCells=307, CellsPercent=56.02, Tmax=6000, UnlimitedTmax=6000
limitTemperature=limitT, Type=Lower, LimitedCells=0, CellsPercent=0, Tmin=250, UnlimitedTmin=309.65922
limitTemperature=limitT, Type=Upper, LimitedCells=90, CellsPercent=83.33, Tmax=6000, UnlimitedTmax=435.15406
limitTemperature=limitT, Type=Lower, LimitedCells=6, CellsPercent=12.77, Tmin=250, UnlimitedTmin=542.3281
limitTemperature=limitT, Type=Upper, LimitedCells=41, CellsPercent=87.23, Tmax=6000, UnlimitedTmax=6000
limitTemperature=limitT, Type=Lower, LimitedCells=49, CellsPercent=43.36, Tmin=250, UnlimitedTmin=6000
limitTemperature=limitT, Type=Upper, LimitedCells=64, CellsPercent=56.64, Tmax=6000, UnlimitedTmax=6000
limitTemperature=limitT, Type=Lower, LimitedCells=64, CellsPercent=47.41, Tmin=250, UnlimitedTmin=6000
limitTemperature=limitT, Type=Upper, LimitedCells=71, CellsPercent=52.59, Tmax=6000, UnlimitedTmax=6000
limitTemperature=limitT, Type=Lower, LimitedCells=14, CellsPercent=28, Tmin=250, UnlimitedTmin=6000
limitTemperature=limitT, Type=Upper, LimitedCells=36, CellsPercent=72, Tmax=6000, UnlimitedTmax=6000
DICPBiCGStab:  Solving for p_rgh, Initial residual = 0.64013595, Final residual = 0.039056407, No Iterations 24
time step continuity errors : sum local = 2443424.3, global = 26250.036, cumulative = 26113.657
Min/max rho:0.28161448 4658782.6
DILUPBiCGStab:  Solving for epsilon, Initial residual = 0.063626268, Final residual = 0.0013459728, No Iterations 1
bounding epsilon, min: -3199731.7 max: 1.774173e+15 average: 1.9555592e+12
DILUPBiCGStab:  Solving for k, Initial residual = 0.015800274, Final residual = 2.2613189e-05, No Iterations 1
bounding k, min: -2368940.2 max: 7.1620112e+11 average: 1.2718885e+08
ExecutionTime = 59.65 s  ClockTime = 59 s

volFieldValue fluid write:
    volAverage(fluid) of T = 1793.9007

volFieldValue pcb write:
    volAverage(pcb) of T = 4101.5418

volFieldValue component_0 write:
    volAverage(component_0) of T = 5360.4686

volFieldValue component_1 write:
    volAverage(component_1) of T = 5326.1891

volFieldValue component_2 write:
    volAverage(component_2) of T = 3650.9275

volFieldValue component_3 write:
    volAverage(component_3) of T = 3241.1878

volFieldValue component_4 write:
    volAverage(component_4) of T = 4316.953

Time = 912


Solving for fluid region fluid
DILUPBiCGStab:  Solving for Ux, Initial residual = 0.49144416, Final residual = 0.019972739, No Iterations 3
DILUPBiCGStab:  Solving for Uy, Initial residual = 0.35645013, Final residual = 0.015337207, No Iterations 3

Solving energy coupled regions
Using lduPrimitiveAssembly: lduAssembly456789
DILUPBiCGStab:  Solving for h, Initial residual = 1, Final residual = 0.0030441681, No Iterations 14
limitTemperature=limitT, Type=Lower, LimitedCells=3783, CellsPercent=39.99, Tmin=250, UnlimitedTmin=250
limitTemperature=limitT, Type=Upper, LimitedCells=4818, CellsPercent=50.92, Tmax=6000, UnlimitedTmax=6000
limitTemperature=limitT, Type=Lower, LimitedCells=392, CellsPercent=71.53, Tmin=250, UnlimitedTmin=250
limitTemperature=limitT, Type=Upper, LimitedCells=137, CellsPercent=25, Tmax=6000, UnlimitedTmax=6000
limitTemperature=limitT, Type=Lower, LimitedCells=7, CellsPercent=6.48, Tmin=250, UnlimitedTmin=396.29081
limitTemperature=limitT, Type=Upper, LimitedCells=101, CellsPercent=93.52, Tmax=6000, UnlimitedTmax=6000
limitTemperature=limitT, Type=Lower, LimitedCells=20, CellsPercent=42.55, Tmin=250, UnlimitedTmin=250
limitTemperature=limitT, Type=Upper, LimitedCells=27, CellsPercent=57.45, Tmax=6000, UnlimitedTmax=6000
limitTemperature=limitT, Type=Lower, LimitedCells=27, CellsPercent=23.89, Tmin=250, UnlimitedTmin=250
limitTemperature=limitT, Type=Upper, LimitedCells=86, CellsPercent=76.11, Tmax=6000, UnlimitedTmax=6000
limitTemperature=limitT, Type=Lower, LimitedCells=86, CellsPercent=63.7, Tmin=250, UnlimitedTmin=250
limitTemperature=limitT, Type=Upper, LimitedCells=49, CellsPercent=36.3, Tmax=6000, UnlimitedTmax=6000
limitTemperature=limitT, Type=Lower, LimitedCells=50, CellsPercent=100, Tmin=250, UnlimitedTmin=250
limitTemperature=limitT, Type=Upper, LimitedCells=0, CellsPercent=0, Tmax=6000, UnlimitedTmax=6000
DICPBiCGStab:  Solving for p_rgh, Initial residual = 0.9455445, Final residual = 0.084259433, No Iterations 4
time step continuity errors : sum local = 1.6821071e+11, global = -2.0172469e+08, cumulative = -2.0169858e+08
Min/max rho:0.14080724 2.1615076e+09
DILUPBiCGStab:  Solving for epsilon, Initial residual = 0.19010882, Final residual = 0.0032647682, No Iterations 1
bounding epsilon, min: -1.186376e+13 max: 6.9928679e+15 average: 7.6911095e+12
DILUPBiCGStab:  Solving for k, Initial residual = 1.582483e-08, Final residual = 1.582483e-08, No Iterations 0
ExecutionTime = 59.73 s  ClockTime = 59 s

volFieldValue fluid write:
    volAverage(fluid) of T = 3248.6806

volFieldValue pcb write:
    volAverage(pcb) of T = 1783.8579

volFieldValue component_0 write:
    volAverage(component_0) of T = 5611.0979

volFieldValue component_1 write:
    volAverage(component_1) of T = 3522.9663

volFieldValue component_2 write:
    volAverage(component_2) of T = 4806.1981

volFieldValue component_3 write:
    volAverage(component_3) of T = 2283.5127

volFieldValue component_4 write:
    volAverage(component_4) of T = 250

Time = 913


Solving for fluid region fluid
DILUPBiCGStab:  Solving for Ux, Initial residual = 0.13783865, Final residual = 0.0053343693, No Iterations 1
DILUPBiCGStab:  Solving for Uy, Initial residual = 0.1936006, Final residual = 0.0036802983, No Iterations 2

Solving energy coupled regions
Using lduPrimitiveAssembly: lduAssembly456789
DILUPBiCGStab:  Solving for h, Initial residual = 1, Final residual = 0.04038086, No Iterations 17
limitTemperature=limitT, Type=Lower, LimitedCells=4686, CellsPercent=49.53, Tmin=250, UnlimitedTmin=250
limitTemperature=limitT, Type=Upper, LimitedCells=4308, CellsPercent=45.53, Tmax=6000, UnlimitedTmax=6000
limitTemperature=limitT, Type=Lower, LimitedCells=408, CellsPercent=74.45, Tmin=250, UnlimitedTmin=250
limitTemperature=limitT, Type=Upper, LimitedCells=134, CellsPercent=24.45, Tmax=6000, UnlimitedTmax=6000
limitTemperature=limitT, Type=Lower, LimitedCells=47, CellsPercent=43.52, Tmin=250, UnlimitedTmin=250
limitTemperature=limitT, Type=Upper, LimitedCells=61, CellsPercent=56.48, Tmax=6000, UnlimitedTmax=6000
limitTemperature=limitT, Type=Lower, LimitedCells=47, CellsPercent=100, Tmin=250, UnlimitedTmin=250
limitTemperature=limitT, Type=Upper, LimitedCells=0, CellsPercent=0, Tmax=6000, UnlimitedTmax=6000
limitTemperature=limitT, Type=Lower, LimitedCells=35, CellsPercent=30.97, Tmin=250, UnlimitedTmin=250
limitTemperature=limitT, Type=Upper, LimitedCells=78, CellsPercent=69.03, Tmax=6000, UnlimitedTmax=6000
limitTemperature=limitT, Type=Lower, LimitedCells=114, CellsPercent=84.44, Tmin=250, UnlimitedTmin=250
limitTemperature=limitT, Type=Upper, LimitedCells=21, CellsPercent=15.56, Tmax=6000, UnlimitedTmax=6000
limitTemperature=limitT, Type=Lower, LimitedCells=50, CellsPercent=100, Tmin=250, UnlimitedTmin=250
limitTemperature=limitT, Type=Upper, LimitedCells=0, CellsPercent=0, Tmax=6000, UnlimitedTmax=250
DICPBiCGStab:  Solving for p_rgh, Initial residual = 0.9579224, Final residual = 0.081545112, No Iterations 2
time step continuity errors : sum local = 1.2796955e+13, global = 3.2030345e+08, cumulative = 1.1860488e+08
Min/max rho:0.07040362 7.7130287e+10
DILUPBiCGStab:  Solving for epsilon, Initial residual = 0.037669057, Final residual = 0.00042919756, No Iterations 1
bounding epsilon, min: -6.5405402e+16 max: 6.1343214e+16 average: 2.9666954e+12
DILUPBiCGStab:  Solving for k, Initial residual = 1.071819e-05, Final residual = 6.5769926e-07, No Iterations 1
bounding k, min: -7.6812404e+11 max: 4.1583837e+12 average: 1.6255723e+09
ExecutionTime = 59.77 s  ClockTime = 59 s

volFieldValue fluid write:
    volAverage(fluid) of T = 2936.1232

volFieldValue pcb write:
    volAverage(pcb) of T = 1659.442

volFieldValue component_0 write:
    volAverage(component_0) of T = 3359.6973

volFieldValue component_1 write:
    volAverage(component_1) of T = 250

volFieldValue component_2 write:
    volAverage(component_2) of T = 4219.2344

volFieldValue component_3 write:
    volAverage(component_3) of T = 980.22177

volFieldValue component_4 write:
    volAverage(component_4) of T = 250

Time = 914


Solving for fluid region fluid
DILUPBiCGStab:  Solving for Ux, Initial residual = 0.40264033, Final residual = 0.0090365391, No Iterations 14
DILUPBiCGStab:  Solving for Uy, Initial residual = 0.44483572, Final residual = 0.01629078, No Iterations 15

Solving energy coupled regions
Using lduPrimitiveAssembly: lduAssembly456789
DILUPBiCGStab:  Solving for h, Initial residual = 1, Final residual = 0.018665811, No Iterations 17
limitTemperature=limitT, Type=Lower, LimitedCells=6308, CellsPercent=66.67, Tmin=250, UnlimitedTmin=250
limitTemperature=limitT, Type=Upper, LimitedCells=3011, CellsPercent=31.83, Tmax=6000, UnlimitedTmax=6000
limitTemperature=limitT, Type=Lower, LimitedCells=469, CellsPercent=85.58, Tmin=250, UnlimitedTmin=250
limitTemperature=limitT, Type=Upper, LimitedCells=74, CellsPercent=13.5, Tmax=6000, UnlimitedTmax=6000
limitTemperature=limitT, Type=Lower, LimitedCells=49, CellsPercent=45.37, Tmin=250, UnlimitedTmin=250
limitTemperature=limitT, Type=Upper, LimitedCells=59, CellsPercent=54.63, Tmax=6000, UnlimitedTmax=6000
limitTemperature=limitT, Type=Lower, LimitedCells=27, CellsPercent=57.45, Tmin=250, UnlimitedTmin=250
limitTemperature=limitT, Type=Upper, LimitedCells=20, CellsPercent=42.55, Tmax=6000, UnlimitedTmax=250
limitTemperature=limitT, Type=Lower, LimitedCells=113, CellsPercent=100, Tmin=250, UnlimitedTmin=250
limitTemperature=limitT, Type=Upper, LimitedCells=0, CellsPercent=0, Tmax=6000, UnlimitedTmax=6000
limitTemperature=limitT, Type=Lower, LimitedCells=135, CellsPercent=100, Tmin=250, UnlimitedTmin=250
limitTemperature=limitT, Type=Upper, LimitedCells=0, CellsPercent=0, Tmax=6000, UnlimitedTmax=6000
limitTemperature=limitT, Type=Lower, LimitedCells=50, CellsPercent=100, Tmin=250, UnlimitedTmin=250
limitTemperature=limitT, Type=Upper, LimitedCells=0, CellsPercent=0, Tmax=6000, UnlimitedTmax=250
DICPBiCGStab:  Solving for p_rgh, Initial residual = 0.99999997, Final residual = 0.073886707, No Iterations 10
time step continuity errors : sum local = 8.0796751e+27, global = -1.8118477e+20, cumulative = -1.8118477e+20
Min/max rho:0.03520181 5.0003857e+14
DILUPBiCGStab:  Solving for epsilon, Initial residual = 0.99932814, Final residual = 0.011243867, No Iterations 3
bounding epsilon, min: -3.8917838e+31 max: 1.5975794e+22 average: -8.4625284e+27
DILUPBiCGStab:  Solving for k, Initial residual = 0.2248157, Final residual = 0.0037545043, No Iterations 2
bounding k, min: -8.8525439e+08 max: 1.6631367e+27 average: 1.7662844e+23
ExecutionTime = 59.88 s  ClockTime = 60 s

volFieldValue fluid write:
    volAverage(fluid) of T = 2146.3421

volFieldValue pcb write:
    volAverage(pcb) of T = 1050.6938

volFieldValue component_0 write:
    volAverage(component_0) of T = 3280.5403

volFieldValue component_1 write:
    volAverage(component_1) of T = 2635.9185

volFieldValue component_2 write:
    volAverage(component_2) of T = 250

volFieldValue component_3 write:
    volAverage(component_3) of T = 250

volFieldValue component_4 write:
    volAverage(component_4) of T = 250

Time = 915


Solving for fluid region fluid
DILUPBiCGStab:  Solving for Ux, Initial residual = 0.61829862, Final residual = 0.028690133, No Iterations 1
DILUPBiCGStab:  Solving for Uy, Initial residual = 0.61508791, Final residual = 0.020914519, No Iterations 4

Solving energy coupled regions
Using lduPrimitiveAssembly: lduAssembly456789
DILUPBiCGStab:  Solving for h, Initial residual = 1, Final residual = 0.018043965, No Iterations 25
limitTemperature=limitT, Type=Lower, LimitedCells=858, CellsPercent=9.07, Tmin=250, UnlimitedTmin=250
limitTemperature=limitT, Type=Upper, LimitedCells=8603, CellsPercent=90.93, Tmax=6000, UnlimitedTmax=6000
limitTemperature=limitT, Type=Lower, LimitedCells=100, CellsPercent=18.25, Tmin=250, UnlimitedTmin=250
limitTemperature=limitT, Type=Upper, LimitedCells=448, CellsPercent=81.75, Tmax=6000, UnlimitedTmax=6000
limitTemperature=limitT, Type=Lower, LimitedCells=0, CellsPercent=0, Tmin=250, UnlimitedTmin=250
limitTemperature=limitT, Type=Upper, LimitedCells=108, CellsPercent=100, Tmax=6000, UnlimitedTmax=6000
limitTemperature=limitT, Type=Lower, LimitedCells=0, CellsPercent=0, Tmin=250, UnlimitedTmin=250
limitTemperature=limitT, Type=Upper, LimitedCells=47, CellsPercent=100, Tmax=6000, UnlimitedTmax=6000
limitTemperature=limitT, Type=Lower, LimitedCells=0, CellsPercent=0, Tmin=250, UnlimitedTmin=250
limitTemperature=limitT, Type=Upper, LimitedCells=113, CellsPercent=100, Tmax=6000, UnlimitedTmax=250
limitTemperature=limitT, Type=Lower, LimitedCells=0, CellsPercent=0, Tmin=250, UnlimitedTmin=250
limitTemperature=limitT, Type=Upper, LimitedCells=135, CellsPercent=100, Tmax=6000, UnlimitedTmax=250
limitTemperature=limitT, Type=Lower, LimitedCells=47, CellsPercent=94, Tmin=250, UnlimitedTmin=250
limitTemperature=limitT, Type=Upper, LimitedCells=3, CellsPercent=6, Tmax=6000, UnlimitedTmax=250
DICPBiCGStab:  Solving for p_rgh, Initial residual = 0.92839797, Final residual = 0.091579301, No Iterations 1
time step continuity errors : sum local = 3.1877464e+40, global = 1.6716679e+25, cumulative = 1.6716498e+25
Min/max rho:0.017600905 7.5001347e+14
DILUPBiCGStab:  Solving for epsilon, Initial residual = 1.6823541e-06, Final residual = 7.7561445e-07, No Iterations 30
bounding epsilon, min: -1.9479432e+42 max: 1.0616495e+34 average: -1.3848975e+39
DILUPBiCGStab:  Solving for k, Initial residual = 0.60116078, Final residual = 0.028044305, No Iterations 3
bounding k, min: -1.7149333e+21 max: 4.0498503e+41 average: 5.8241725e+38
ExecutionTime = 60.03 s  ClockTime = 60 s

volFieldValue fluid write:
    volAverage(fluid) of T = 5488.5725

volFieldValue pcb write:
    volAverage(pcb) of T = 4962.9135

volFieldValue component_0 write:
    volAverage(component_0) of T = 6000

volFieldValue component_1 write:
    volAverage(component_1) of T = 6000

volFieldValue component_2 write:
    volAverage(component_2) of T = 6000

volFieldValue component_3 write:
    volAverage(component_3) of T = 6000

volFieldValue component_4 write:
    volAverage(component_4) of T = 637.39493

Time = 916


Solving for fluid region fluid
DILUPBiCGStab:  Solving for Ux, Initial residual = 0.14680937, Final residual = 0.0022051531, No Iterations 14
DILUPBiCGStab:  Solving for Uy, Initial residual = 0.10331918, Final residual = 0.0034772033, No Iterations 14

Solving energy coupled regions
Using lduPrimitiveAssembly: lduAssembly456789
DILUPBiCGStab:  Solving for h, Initial residual = 1, Final residual = 0.017260649, No Iterations 41
limitTemperature=limitT, Type=Lower, LimitedCells=4728, CellsPercent=49.97, Tmin=250, UnlimitedTmin=250
limitTemperature=limitT, Type=Upper, LimitedCells=4733, CellsPercent=50.03, Tmax=6000, UnlimitedTmax=6000
limitTemperature=limitT, Type=Lower, LimitedCells=193, CellsPercent=35.22, Tmin=250, UnlimitedTmin=250
limitTemperature=limitT, Type=Upper, LimitedCells=355, CellsPercent=64.78, Tmax=6000, UnlimitedTmax=6000
limitTemperature=limitT, Type=Lower, LimitedCells=108, CellsPercent=100, Tmin=250, UnlimitedTmin=6000
limitTemperature=limitT, Type=Upper, LimitedCells=0, CellsPercent=0, Tmax=6000, UnlimitedTmax=6000
limitTemperature=limitT, Type=Lower, LimitedCells=47, CellsPercent=100, Tmin=250, UnlimitedTmin=6000
limitTemperature=limitT, Type=Upper, LimitedCells=0, CellsPercent=0, Tmax=6000, UnlimitedTmax=6000
limitTemperature=limitT, Type=Lower, LimitedCells=0, CellsPercent=0, Tmin=250, UnlimitedTmin=6000
limitTemperature=limitT, Type=Upper, LimitedCells=113, CellsPercent=100, Tmax=6000, UnlimitedTmax=6000
limitTemperature=limitT, Type=Lower, LimitedCells=0, CellsPercent=0, Tmin=250, UnlimitedTmin=6000
limitTemperature=limitT, Type=Upper, LimitedCells=135, CellsPercent=100, Tmax=6000, UnlimitedTmax=6000
limitTemperature=limitT, Type=Lower, LimitedCells=0, CellsPercent=0, Tmin=250, UnlimitedTmin=250
limitTemperature=limitT, Type=Upper, LimitedCells=50, CellsPercent=100, Tmax=6000, UnlimitedTmax=6000
[stack trace]
=============
#1  Foam::sigFpe::sigHandler(int) in /usr/lib/openfoam/openfoam2506/platforms/linux64GccDPInt32Opt/lib/libOpenFOAM.so
#2  ? in /lib/x86_64-linux-gnu/libc.so.6
#3  Foam::DICPreconditioner::calcReciprocalD(Foam::Field<double>&, Foam::lduMatrix const&) in /usr/lib/openfoam/openfoam2506/platforms/linux64GccDPInt32Opt/lib/libOpenFOAM.so
#4  Foam::DICPreconditioner::DICPreconditioner(Foam::lduMatrix::solver const&, Foam::dictionary const&) in /usr/lib/openfoam/openfoam2506/platforms/linux64GccDPInt32Opt/lib/libOpenFOAM.so
#5  Foam::lduMatrix::preconditioner::addsymMatrixConstructorToTable<Foam::DICPreconditioner>::New(Foam::lduMatrix::solver const&, Foam::dictionary const&) in /usr/lib/openfoam/openfoam2506/platforms/linux64GccDPInt32Opt/lib/libOpenFOAM.so
#6  Foam::lduMatrix::preconditioner::New(Foam::lduMatrix::solver const&, Foam::dictionary const&) in /usr/lib/openfoam/openfoam2506/platforms/linux64GccDPInt32Opt/lib/libOpenFOAM.so
#7  Foam::PBiCGStab::scalarSolve(Foam::Field<double>&, Foam::Field<double> const&, unsigned char) const in /usr/lib/openfoam/openfoam2506/platforms/linux64GccDPInt32Opt/lib/libOpenFOAM.so
#8  Foam::PBiCGStab::solve(Foam::Field<double>&, Foam::Field<double> const&, unsigned char) const in /usr/lib/openfoam/openfoam2506/platforms/linux64GccDPInt32Opt/lib/libOpenFOAM.so
#9  Foam::fvMatrix<double>::solveSegregated(Foam::dictionary const&) in /usr/lib/openfoam/openfoam2506/platforms/linux64GccDPInt32Opt/lib/libfiniteVolume.so
#10  ? in /usr/lib/openfoam/openfoam2506/platforms/linux64GccDPInt32Opt/lib/libfiniteVolume.so
#11  Foam::fvMesh::solve(Foam::fvMatrix<double>&, Foam::dictionary const&) const in /usr/lib/openfoam/openfoam2506/platforms/linux64GccDPInt32Opt/lib/libfiniteVolume.so
#12  ? in /usr/lib/openfoam/openfoam2506/platforms/linux64GccDPInt32Opt/bin/chtMultiRegionSimpleFoam
#13  ? in /usr/lib/openfoam/openfoam2506/platforms/linux64GccDPInt32Opt/bin/chtMultiRegionSimpleFoam
#14  ? in /lib/x86_64-linux-gnu/libc.so.6
#15  __libc_start_main in /lib/x86_64-linux-gnu/libc.so.6
#16  ? in /usr/lib/openfoam/openfoam2506/platforms/linux64GccDPInt32Opt/bin/chtMultiRegionSimpleFoam
=============
Floating point exception (core dumped)
