/*---------------------------------------------------------------------------*\
| =========                 |                                                 |
| \\      /  F ield         | OpenFOAM: The Open Source CFD Toolbox           |
|  \\    /   O peration     | Version:  2506                                  |
|   \\  /    A nd           | Website:  www.openfoam.com                      |
|    \\/     M anipulation  |                                                 |
\*---------------------------------------------------------------------------*/
Build  : _615aae61-20250627 OPENFOAM=2506 version=2506
Arch   : "LSB;label=32;scalar=64"
Exec   : chtMultiRegionSimpleFoam
Date   : Oct 04 2025
Time   : 23:23:32
Host   : instance-20250906-0051
PID    : 101592
I/O    : uncollated
Case   : /home/ubuntu/ThermalUNet/data_generation/simulation_results/openfoam/case_46
nProcs : 1
trapFpe: Floating point exception trapping enabled (FOAM_SIGFPE).
fileModificationChecking : Monitoring run-time modified files using timeStampMaster (fileModificationSkew 5, maxFileModificationPolls 20)
allowSystemOperations : Allowing user-supplied system call operations

// * * * * * * * * * * * * * * * * * * * * * * * * * * * * * * * * * * * * * //
Create time

Create fluid mesh for region fluid for time = 0

Create solid mesh for region pcb for time = 0

Create solid mesh for region component_0 for time = 0

Create solid mesh for region component_1 for time = 0

Create solid mesh for region component_2 for time = 0

Create solid mesh for region component_3 for time = 0

Create solid mesh for region component_4 for time = 0

*** Reading fluid mesh thermophysical properties for region fluid

    Adding to thermoFluid

Selecting thermodynamics package 
{
    type            heRhoThermo;
    mixture         pureMixture;
    transport       const;
    thermo          hConst;
    equationOfState perfectGas;
    specie          specie;
    energy          sensibleEnthalpy;
}

    Adding to rhoFluid

    Adding to UFluid

    Adding to phiFluid

    Adding to hRefFluid

    Adding to ghFluid

    Adding to ghfFluid

    Adding to turbulence

Selecting turbulence model type RAS
Selecting RAS turbulence model realizableKE
RAS
{
    RASModel        realizableKE;
    turbulence      on;
    printCoeffs     on;
    A0              4;
    C2              1.9;
    sigmak          1;
    sigmaEps        1.2;
}

Radiation model not active: radiationProperties not found
Selecting radiationModel none
    Adding MRF

No MRF models present

    Adding fvOptions

Creating finite volume options from "system/fvOptions"

Selecting finite volume options type limitTemperature
    Source: limitT
    State: active
    - selecting all cells
    - selected 8552 cell(s) with volume 16.035976
*** Reading solid mesh thermophysical properties for region pcb

    Adding to thermos

Selecting thermodynamics package 
{
    type            heSolidThermo;
    mixture         pureMixture;
    transport       constIso;
    thermo          hConst;
    equationOfState rhoConst;
    specie          specie;
    energy          sensibleEnthalpy;
}

    Adding to radiations

Radiation model not active: radiationProperties not found
Selecting radiationModel none
    Adding fvOptions

Creating finite volume options from "system/fvOptions"

Selecting finite volume options type limitTemperature
    Source: limitT
    State: active
    - selecting all cells
    - selected 676 cell(s) with volume 1.3444359
*** Reading solid mesh thermophysical properties for region component_0

    Adding to thermos

Selecting thermodynamics package 
{
    type            heSolidThermo;
    mixture         pureMixture;
    transport       constIso;
    thermo          hConst;
    equationOfState rhoConst;
    specie          specie;
    energy          sensibleEnthalpy;
}

    Adding to radiations

Radiation model not active: radiationProperties not found
Selecting radiationModel none
    Adding fvOptions

Creating finite volume options from "system/fvOptions"

Selecting finite volume options type scalarSemiImplicitSource
    Source: v_CPU_AbsoluteEnergySource
    State: active
    - selecting cells using cellZones (component_0)
    - selected 135 cell(s) with volume 0.22603656
Selecting finite volume options type limitTemperature
    Source: limitT
    State: active
    - selecting all cells
    - selected 135 cell(s) with volume 0.22603656
*** Reading solid mesh thermophysical properties for region component_1

    Adding to thermos

Selecting thermodynamics package 
{
    type            heSolidThermo;
    mixture         pureMixture;
    transport       constIso;
    thermo          hConst;
    equationOfState rhoConst;
    specie          specie;
    energy          sensibleEnthalpy;
}

    Adding to radiations

Radiation model not active: radiationProperties not found
Selecting radiationModel none
    Adding fvOptions

Creating finite volume options from "system/fvOptions"

Selecting finite volume options type scalarSemiImplicitSource
    Source: v_CPU_AbsoluteEnergySource
    State: active
    - selecting cells using cellZones (component_1)
    - selected 28 cell(s) with volume 0.03366023
Selecting finite volume options type limitTemperature
    Source: limitT
    State: active
    - selecting all cells
    - selected 28 cell(s) with volume 0.03366023
*** Reading solid mesh thermophysical properties for region component_2

    Adding to thermos

Selecting thermodynamics package 
{
    type            heSolidThermo;
    mixture         pureMixture;
    transport       constIso;
    thermo          hConst;
    equationOfState rhoConst;
    specie          specie;
    energy          sensibleEnthalpy;
}

    Adding to radiations

Radiation model not active: radiationProperties not found
Selecting radiationModel none
    Adding fvOptions

Creating finite volume options from "system/fvOptions"

Selecting finite volume options type scalarSemiImplicitSource
    Source: v_CPU_AbsoluteEnergySource
    State: active
    - selecting cells using cellZones (component_2)
    - selected 349 cell(s) with volume 0.70429014
Selecting finite volume options type limitTemperature
    Source: limitT
    State: active
    - selecting all cells
    - selected 349 cell(s) with volume 0.70429014
*** Reading solid mesh thermophysical properties for region component_3

    Adding to thermos

Selecting thermodynamics package 
{
    type            heSolidThermo;
    mixture         pureMixture;
    transport       constIso;
    thermo          hConst;
    equationOfState rhoConst;
    specie          specie;
    energy          sensibleEnthalpy;
}

    Adding to radiations

Radiation model not active: radiationProperties not found
Selecting radiationModel none
    Adding fvOptions

Creating finite volume options from "system/fvOptions"

Selecting finite volume options type scalarSemiImplicitSource
    Source: v_CPU_AbsoluteEnergySource
    State: active
    - selecting cells using cellZones (component_3)
    - selected 349 cell(s) with volume 0.73030991
Selecting finite volume options type limitTemperature
    Source: limitT
    State: active
    - selecting all cells
    - selected 349 cell(s) with volume 0.73030991
*** Reading solid mesh thermophysical properties for region component_4

    Adding to thermos

Selecting thermodynamics package 
{
    type            heSolidThermo;
    mixture         pureMixture;
    transport       constIso;
    thermo          hConst;
    equationOfState rhoConst;
    specie          specie;
    energy          sensibleEnthalpy;
}

    Adding to radiations

Radiation model not active: radiationProperties not found
Selecting radiationModel none
    Adding fvOptions

Creating finite volume options from "system/fvOptions"

Selecting finite volume options type scalarSemiImplicitSource
    Source: v_CPU_AbsoluteEnergySource
    State: active
    - selecting cells using cellZones (component_4)
    - selected 448 cell(s) with volume 0.92529111
Selecting finite volume options type limitTemperature
    Source: limitT
    State: active
    - selecting all cells
    - selected 448 cell(s) with volume 0.92529111
Create fvMatrixAssembly.
--> FOAM Warning : 

    failed lookup of region0 (objectRegistry case_46)
    available objects of type objectRegistry:
7(component_3 component_0 component_1 fluid pcb component_4 component_2)


    From const Type& Foam::objectRegistry::lookupObject(const Foam::word&, bool) const [with Type = Foam::objectRegistry]
    in file db/objectRegistry/objectRegistryTemplates.C at line 628.
--> loading function object 'limitT'

Time = 1


Solving for fluid region fluid
DILUPBiCGStab:  Solving for Ux, Initial residual = 1, Final residual = 0.010496359, No Iterations 3
DILUPBiCGStab:  Solving for Uy, Initial residual = 1, Final residual = 0.038919148, No Iterations 2

Solving energy coupled regions
Creating lduPrimitiveAssembly: lduAssembly456789
DILUPBiCGStab:  Solving for h, Initial residual = 0.003466787, Final residual = 7.9296585e-05, No Iterations 1
limitTemperature=limitT, Type=Lower, LimitedCells=0, CellsPercent=0, Tmin=250, UnlimitedTmin=300
limitTemperature=limitT, Type=Upper, LimitedCells=0, CellsPercent=0, Tmax=6000, UnlimitedTmax=300
limitTemperature=limitT, Type=Lower, LimitedCells=0, CellsPercent=0, Tmin=250, UnlimitedTmin=300
limitTemperature=limitT, Type=Upper, LimitedCells=0, CellsPercent=0, Tmax=6000, UnlimitedTmax=300
limitTemperature=limitT, Type=Lower, LimitedCells=0, CellsPercent=0, Tmin=250, UnlimitedTmin=300
limitTemperature=limitT, Type=Upper, LimitedCells=0, CellsPercent=0, Tmax=6000, UnlimitedTmax=300
limitTemperature=limitT, Type=Lower, LimitedCells=0, CellsPercent=0, Tmin=250, UnlimitedTmin=300
limitTemperature=limitT, Type=Upper, LimitedCells=0, CellsPercent=0, Tmax=6000, UnlimitedTmax=300
limitTemperature=limitT, Type=Lower, LimitedCells=0, CellsPercent=0, Tmin=250, UnlimitedTmin=300
limitTemperature=limitT, Type=Upper, LimitedCells=0, CellsPercent=0, Tmax=6000, UnlimitedTmax=300
limitTemperature=limitT, Type=Lower, LimitedCells=0, CellsPercent=0, Tmin=250, UnlimitedTmin=300
limitTemperature=limitT, Type=Upper, LimitedCells=0, CellsPercent=0, Tmax=6000, UnlimitedTmax=300
limitTemperature=limitT, Type=Lower, LimitedCells=0, CellsPercent=0, Tmin=250, UnlimitedTmin=300
limitTemperature=limitT, Type=Upper, LimitedCells=0, CellsPercent=0, Tmax=6000, UnlimitedTmax=300
DICPBiCGStab:  Solving for p_rgh, Initial residual = 1, Final residual = 0.045671882, No Iterations 124
time step continuity errors : sum local = 0.011247352, global = 0.005802702, cumulative = 0.005802702
Min/max rho:1.1766334 1.1766806
DILUPBiCGStab:  Solving for epsilon, Initial residual = 0.82229222, Final residual = 0.0013813653, No Iterations 1
DILUPBiCGStab:  Solving for k, Initial residual = 1, Final residual = 0.016218318, No Iterations 1
ExecutionTime = 0.32 s  ClockTime = 0 s

volFieldValue fluid write:
    volAverage(fluid) of T = 299.99993

volFieldValue pcb write:
    volAverage(pcb) of T = 300.00202

volFieldValue component_0 write:
    volAverage(component_0) of T = 300.82961

volFieldValue component_1 write:
    volAverage(component_1) of T = 301.70417

volFieldValue component_2 write:
    volAverage(component_2) of T = 300.13504

volFieldValue component_3 write:
    volAverage(component_3) of T = 300.06511

volFieldValue component_4 write:
    volAverage(component_4) of T = 300.047

Time = 2


Solving for fluid region fluid
DILUPBiCGStab:  Solving for Ux, Initial residual = 0.58337604, Final residual = 0.013104519, No Iterations 2
DILUPBiCGStab:  Solving for Uy, Initial residual = 0.5173163, Final residual = 0.010969279, No Iterations 2

Solving energy coupled regions
Using lduPrimitiveAssembly: lduAssembly456789
DILUPBiCGStab:  Solving for h, Initial residual = 0.0033764638, Final residual = 6.5535484e-05, No Iterations 1
limitTemperature=limitT, Type=Lower, LimitedCells=0, CellsPercent=0, Tmin=250, UnlimitedTmin=299.9872
limitTemperature=limitT, Type=Upper, LimitedCells=0, CellsPercent=0, Tmax=6000, UnlimitedTmax=300.01122
limitTemperature=limitT, Type=Lower, LimitedCells=0, CellsPercent=0, Tmin=250, UnlimitedTmin=299.99161
limitTemperature=limitT, Type=Upper, LimitedCells=0, CellsPercent=0, Tmax=6000, UnlimitedTmax=300.08177
limitTemperature=limitT, Type=Lower, LimitedCells=0, CellsPercent=0, Tmin=250, UnlimitedTmin=300.55725
limitTemperature=limitT, Type=Upper, LimitedCells=0, CellsPercent=0, Tmax=6000, UnlimitedTmax=301.06998
limitTemperature=limitT, Type=Lower, LimitedCells=0, CellsPercent=0, Tmin=250, UnlimitedTmin=300.93331
limitTemperature=limitT, Type=Upper, LimitedCells=0, CellsPercent=0, Tmax=6000, UnlimitedTmax=302.02479
limitTemperature=limitT, Type=Lower, LimitedCells=0, CellsPercent=0, Tmin=250, UnlimitedTmin=300.08563
limitTemperature=limitT, Type=Upper, LimitedCells=0, CellsPercent=0, Tmax=6000, UnlimitedTmax=300.16189
limitTemperature=limitT, Type=Lower, LimitedCells=0, CellsPercent=0, Tmin=250, UnlimitedTmin=300.02805
limitTemperature=limitT, Type=Upper, LimitedCells=0, CellsPercent=0, Tmax=6000, UnlimitedTmax=300.07534
limitTemperature=limitT, Type=Lower, LimitedCells=0, CellsPercent=0, Tmin=250, UnlimitedTmin=300.04303
limitTemperature=limitT, Type=Upper, LimitedCells=0, CellsPercent=0, Tmax=6000, UnlimitedTmax=300.06507
DICPBiCGStab:  Solving for p_rgh, Initial residual = 0.086884059, Final residual = 0.0075625598, No Iterations 137
time step continuity errors : sum local = 0.02387829, global = 0.0026688838, cumulative = 0.0084715859
Min/max rho:1.173032 1.177056
DILUPBiCGStab:  Solving for epsilon, Initial residual = 0.80377021, Final residual = 0.002717975, No Iterations 1
DILUPBiCGStab:  Solving for k, Initial residual = 0.84634208, Final residual = 0.017773915, No Iterations 1
ExecutionTime = 0.5 s  ClockTime = 0 s

volFieldValue fluid write:
    volAverage(fluid) of T = 299.99994

volFieldValue pcb write:
    volAverage(pcb) of T = 300.00597

volFieldValue component_0 write:
    volAverage(component_0) of T = 301.64734

volFieldValue component_1 write:
    volAverage(component_1) of T = 303.36206

volFieldValue component_2 write:
    volAverage(component_2) of T = 300.26885

volFieldValue component_3 write:
    volAverage(component_3) of T = 300.12984

volFieldValue component_4 write:
    volAverage(component_4) of T = 300.09386

Time = 3


Solving for fluid region fluid
DILUPBiCGStab:  Solving for Ux, Initial residual = 0.43749499, Final residual = 0.012472075, No Iterations 2
DILUPBiCGStab:  Solving for Uy, Initial residual = 0.368704, Final residual = 0.0080280038, No Iterations 2

Solving energy coupled regions
Using lduPrimitiveAssembly: lduAssembly456789
DILUPBiCGStab:  Solving for h, Initial residual = 0.0032078621, Final residual = 6.6022979e-05, No Iterations 1
limitTemperature=limitT, Type=Lower, LimitedCells=0, CellsPercent=0, Tmin=250, UnlimitedTmin=299.9896
limitTemperature=limitT, Type=Upper, LimitedCells=0, CellsPercent=0, Tmax=6000, UnlimitedTmax=300.01206
limitTemperature=limitT, Type=Lower, LimitedCells=0, CellsPercent=0, Tmin=250, UnlimitedTmin=299.98662
limitTemperature=limitT, Type=Upper, LimitedCells=0, CellsPercent=0, Tmax=6000, UnlimitedTmax=300.22885
limitTemperature=limitT, Type=Lower, LimitedCells=0, CellsPercent=0, Tmin=250, UnlimitedTmin=301.18725
limitTemperature=limitT, Type=Upper, LimitedCells=0, CellsPercent=0, Tmax=6000, UnlimitedTmax=302.00233
limitTemperature=limitT, Type=Lower, LimitedCells=0, CellsPercent=0, Tmin=250, UnlimitedTmin=302.0144
limitTemperature=limitT, Type=Upper, LimitedCells=0, CellsPercent=0, Tmax=6000, UnlimitedTmax=303.90058
limitTemperature=limitT, Type=Lower, LimitedCells=0, CellsPercent=0, Tmin=250, UnlimitedTmin=300.18117
limitTemperature=limitT, Type=Upper, LimitedCells=0, CellsPercent=0, Tmax=6000, UnlimitedTmax=300.31651
limitTemperature=limitT, Type=Lower, LimitedCells=0, CellsPercent=0, Tmin=250, UnlimitedTmin=300.06068
limitTemperature=limitT, Type=Upper, LimitedCells=0, CellsPercent=0, Tmax=6000, UnlimitedTmax=300.1473
limitTemperature=limitT, Type=Lower, LimitedCells=0, CellsPercent=0, Tmin=250, UnlimitedTmin=300.08707
limitTemperature=limitT, Type=Upper, LimitedCells=0, CellsPercent=0, Tmax=6000, UnlimitedTmax=300.12246
DICPBiCGStab:  Solving for p_rgh, Initial residual = 0.05559706, Final residual = 0.0054667279, No Iterations 27
time step continuity errors : sum local = 0.033384477, global = -0.0098014147, cumulative = -0.0013298288
Min/max rho:1.1678955 1.1776096
DILUPBiCGStab:  Solving for epsilon, Initial residual = 0.69332198, Final residual = 0.0040679884, No Iterations 1
DILUPBiCGStab:  Solving for k, Initial residual = 0.65810605, Final residual = 0.01741214, No Iterations 1
ExecutionTime = 0.59 s  ClockTime = 0 s

volFieldValue fluid write:
    volAverage(fluid) of T = 300.00017

volFieldValue pcb write:
    volAverage(pcb) of T = 300.01171

volFieldValue component_0 write:
    volAverage(component_0) of T = 302.37725

volFieldValue component_1 write:
    volAverage(component_1) of T = 304.82126

volFieldValue component_2 write:
    volAverage(component_2) of T = 300.39302

volFieldValue component_3 write:
    volAverage(component_3) of T = 300.19194

volFieldValue component_4 write:
    volAverage(component_4) of T = 300.13917

Time = 4


Solving for fluid region fluid
DILUPBiCGStab:  Solving for Ux, Initial residual = 0.26239889, Final residual = 0.0065619137, No Iterations 2
DILUPBiCGStab:  Solving for Uy, Initial residual = 0.22414375, Final residual = 0.0053364082, No Iterations 2

Solving energy coupled regions
Using lduPrimitiveAssembly: lduAssembly456789
DILUPBiCGStab:  Solving for h, Initial residual = 0.0031006024, Final residual = 6.5448013e-05, No Iterations 1
limitTemperature=limitT, Type=Lower, LimitedCells=0, CellsPercent=0, Tmin=250, UnlimitedTmin=299.99276
limitTemperature=limitT, Type=Upper, LimitedCells=0, CellsPercent=0, Tmax=6000, UnlimitedTmax=300.08116
limitTemperature=limitT, Type=Lower, LimitedCells=0, CellsPercent=0, Tmin=250, UnlimitedTmin=299.99014
limitTemperature=limitT, Type=Upper, LimitedCells=0, CellsPercent=0, Tmax=6000, UnlimitedTmax=300.41847
limitTemperature=limitT, Type=Lower, LimitedCells=0, CellsPercent=0, Tmin=250, UnlimitedTmin=301.84742
limitTemperature=limitT, Type=Upper, LimitedCells=0, CellsPercent=0, Tmax=6000, UnlimitedTmax=302.91328
limitTemperature=limitT, Type=Lower, LimitedCells=0, CellsPercent=0, Tmin=250, UnlimitedTmin=303.03627
limitTemperature=limitT, Type=Upper, LimitedCells=0, CellsPercent=0, Tmax=6000, UnlimitedTmax=305.48298
limitTemperature=limitT, Type=Lower, LimitedCells=0, CellsPercent=0, Tmin=250, UnlimitedTmin=300.28073
limitTemperature=limitT, Type=Upper, LimitedCells=0, CellsPercent=0, Tmax=6000, UnlimitedTmax=300.46709
limitTemperature=limitT, Type=Lower, LimitedCells=0, CellsPercent=0, Tmin=250, UnlimitedTmin=300.09504
limitTemperature=limitT, Type=Upper, LimitedCells=0, CellsPercent=0, Tmax=6000, UnlimitedTmax=300.21694
limitTemperature=limitT, Type=Lower, LimitedCells=0, CellsPercent=0, Tmin=250, UnlimitedTmin=300.13134
limitTemperature=limitT, Type=Upper, LimitedCells=0, CellsPercent=0, Tmax=6000, UnlimitedTmax=300.17084
DICPBiCGStab:  Solving for p_rgh, Initial residual = 0.088750549, Final residual = 0.0085840815, No Iterations 13
time step continuity errors : sum local = 0.057830808, global = 0.0033468317, cumulative = 0.0020170029
Min/max rho:1.1623256 1.1778912
DILUPBiCGStab:  Solving for epsilon, Initial residual = 0.52938434, Final residual = 0.0060186701, No Iterations 1
DILUPBiCGStab:  Solving for k, Initial residual = 0.48762923, Final residual = 0.017121089, No Iterations 1
ExecutionTime = 0.63 s  ClockTime = 0 s

volFieldValue fluid write:
    volAverage(fluid) of T = 300.00055

volFieldValue pcb write:
    volAverage(pcb) of T = 300.01933

volFieldValue component_0 write:
    volAverage(component_0) of T = 303.05058

volFieldValue component_1 write:
    volAverage(component_1) of T = 306.16706

volFieldValue component_2 write:
    volAverage(component_2) of T = 300.51031

volFieldValue component_3 write:
    volAverage(component_3) of T = 300.25217

volFieldValue component_4 write:
    volAverage(component_4) of T = 300.18339

Time = 5


Solving for fluid region fluid
DILUPBiCGStab:  Solving for Ux, Initial residual = 0.16190448, Final residual = 0.0036483382, No Iterations 2
DILUPBiCGStab:  Solving for Uy, Initial residual = 0.12501525, Final residual = 0.0031111895, No Iterations 2

Solving energy coupled regions
Using lduPrimitiveAssembly: lduAssembly456789
DILUPBiCGStab:  Solving for h, Initial residual = 0.0030191062, Final residual = 6.6139906e-05, No Iterations 1
limitTemperature=limitT, Type=Lower, LimitedCells=0, CellsPercent=0, Tmin=250, UnlimitedTmin=299.99434
limitTemperature=limitT, Type=Upper, LimitedCells=0, CellsPercent=0, Tmax=6000, UnlimitedTmax=300.45184
limitTemperature=limitT, Type=Lower, LimitedCells=0, CellsPercent=0, Tmin=250, UnlimitedTmin=299.99313
limitTemperature=limitT, Type=Upper, LimitedCells=0, CellsPercent=0, Tmax=6000, UnlimitedTmax=300.6567
limitTemperature=limitT, Type=Lower, LimitedCells=0, CellsPercent=0, Tmin=250, UnlimitedTmin=302.09592
limitTemperature=limitT, Type=Upper, LimitedCells=0, CellsPercent=0, Tmax=6000, UnlimitedTmax=303.80988
limitTemperature=limitT, Type=Lower, LimitedCells=0, CellsPercent=0, Tmin=250, UnlimitedTmin=304.00994
limitTemperature=limitT, Type=Upper, LimitedCells=0, CellsPercent=0, Tmax=6000, UnlimitedTmax=306.95532
limitTemperature=limitT, Type=Lower, LimitedCells=0, CellsPercent=0, Tmin=250, UnlimitedTmin=300.31509
limitTemperature=limitT, Type=Upper, LimitedCells=0, CellsPercent=0, Tmax=6000, UnlimitedTmax=300.61507
limitTemperature=limitT, Type=Lower, LimitedCells=0, CellsPercent=0, Tmin=250, UnlimitedTmin=300.13133
limitTemperature=limitT, Type=Upper, LimitedCells=0, CellsPercent=0, Tmax=6000, UnlimitedTmax=300.28498
limitTemperature=limitT, Type=Lower, LimitedCells=0, CellsPercent=0, Tmin=250, UnlimitedTmin=300.17551
limitTemperature=limitT, Type=Upper, LimitedCells=0, CellsPercent=0, Tmax=6000, UnlimitedTmax=300.21703
DICPBiCGStab:  Solving for p_rgh, Initial residual = 0.11170583, Final residual = 0.010928586, No Iterations 21
time step continuity errors : sum local = 0.068679412, global = 0.027017962, cumulative = 0.029034965
Min/max rho:1.1567734 1.1780305
DILUPBiCGStab:  Solving for epsilon, Initial residual = 0.33461826, Final residual = 0.0061387934, No Iterations 1
DILUPBiCGStab:  Solving for k, Initial residual = 0.36117958, Final residual = 0.015128035, No Iterations 1
ExecutionTime = 0.72 s  ClockTime = 0 s

volFieldValue fluid write:
    volAverage(fluid) of T = 300.00074

volFieldValue pcb write:
    volAverage(pcb) of T = 300.02757

volFieldValue component_0 write:
    volAverage(component_0) of T = 303.69975

volFieldValue component_1 write:
    volAverage(component_1) of T = 307.43111

volFieldValue component_2 write:
    volAverage(component_2) of T = 300.62398

volFieldValue component_3 write:
    volAverage(component_3) of T = 300.31109

volFieldValue component_4 write:
    volAverage(component_4) of T = 300.22684

Time = 6


Solving for fluid region fluid
DILUPBiCGStab:  Solving for Ux, Initial residual = 0.11885596, Final residual = 0.0027008193, No Iterations 2
DILUPBiCGStab:  Solving for Uy, Initial residual = 0.066055833, Final residual = 0.0013308081, No Iterations 2

Solving energy coupled regions
Using lduPrimitiveAssembly: lduAssembly456789
DILUPBiCGStab:  Solving for h, Initial residual = 0.0029261947, Final residual = 6.5075096e-05, No Iterations 1
limitTemperature=limitT, Type=Lower, LimitedCells=0, CellsPercent=0, Tmin=250, UnlimitedTmin=299.99417
limitTemperature=limitT, Type=Upper, LimitedCells=0, CellsPercent=0, Tmax=6000, UnlimitedTmax=300.25577
limitTemperature=limitT, Type=Lower, LimitedCells=0, CellsPercent=0, Tmin=250, UnlimitedTmin=299.99467
limitTemperature=limitT, Type=Upper, LimitedCells=0, CellsPercent=0, Tmax=6000, UnlimitedTmax=300.93968
limitTemperature=limitT, Type=Lower, LimitedCells=0, CellsPercent=0, Tmin=250, UnlimitedTmin=302.20091
limitTemperature=limitT, Type=Upper, LimitedCells=0, CellsPercent=0, Tmax=6000, UnlimitedTmax=304.68496
limitTemperature=limitT, Type=Lower, LimitedCells=0, CellsPercent=0, Tmin=250, UnlimitedTmin=304.95322
limitTemperature=limitT, Type=Upper, LimitedCells=0, CellsPercent=0, Tmax=6000, UnlimitedTmax=308.29041
limitTemperature=limitT, Type=Lower, LimitedCells=0, CellsPercent=0, Tmin=250, UnlimitedTmin=300.3274
limitTemperature=limitT, Type=Upper, LimitedCells=0, CellsPercent=0, Tmax=6000, UnlimitedTmax=300.76107
limitTemperature=limitT, Type=Lower, LimitedCells=0, CellsPercent=0, Tmin=250, UnlimitedTmin=300.1691
limitTemperature=limitT, Type=Upper, LimitedCells=0, CellsPercent=0, Tmax=6000, UnlimitedTmax=300.35175
limitTemperature=limitT, Type=Lower, LimitedCells=0, CellsPercent=0, Tmin=250, UnlimitedTmin=300.20563
limitTemperature=limitT, Type=Upper, LimitedCells=0, CellsPercent=0, Tmax=6000, UnlimitedTmax=300.25913
DICPBiCGStab:  Solving for p_rgh, Initial residual = 0.12589722, Final residual = 0.012319823, No Iterations 24
time step continuity errors : sum local = 0.068357699, global = 0.046371786, cumulative = 0.075406751
Min/max rho:1.1515114 1.1780705
DILUPBiCGStab:  Solving for epsilon, Initial residual = 0.21251694, Final residual = 0.0052356632, No Iterations 1
DILUPBiCGStab:  Solving for k, Initial residual = 0.2743347, Final residual = 0.012695531, No Iterations 1
ExecutionTime = 0.79 s  ClockTime = 1 s

volFieldValue fluid write:
    volAverage(fluid) of T = 300.00102

volFieldValue pcb write:
    volAverage(pcb) of T = 300.0371

volFieldValue component_0 write:
    volAverage(component_0) of T = 304.3368

volFieldValue component_1 write:
    volAverage(component_1) of T = 308.62054

volFieldValue component_2 write:
    volAverage(component_2) of T = 300.73545

volFieldValue component_3 write:
    volAverage(component_3) of T = 300.36894

volFieldValue component_4 write:
    volAverage(component_4) of T = 300.26964

Time = 7


Solving for fluid region fluid
DILUPBiCGStab:  Solving for Ux, Initial residual = 0.10972569, Final residual = 0.0025215172, No Iterations 2
DILUPBiCGStab:  Solving for Uy, Initial residual = 0.048242729, Final residual = 0.00014169775, No Iterations 3

Solving energy coupled regions
Using lduPrimitiveAssembly: lduAssembly456789
DILUPBiCGStab:  Solving for h, Initial residual = 0.0028865964, Final residual = 6.4838267e-05, No Iterations 1
limitTemperature=limitT, Type=Lower, LimitedCells=0, CellsPercent=0, Tmin=250, UnlimitedTmin=299.99522
limitTemperature=limitT, Type=Upper, LimitedCells=0, CellsPercent=0, Tmax=6000, UnlimitedTmax=300.56679
limitTemperature=limitT, Type=Lower, LimitedCells=0, CellsPercent=0, Tmin=250, UnlimitedTmin=299.9955
limitTemperature=limitT, Type=Upper, LimitedCells=0, CellsPercent=0, Tmax=6000, UnlimitedTmax=301.25703
limitTemperature=limitT, Type=Lower, LimitedCells=0, CellsPercent=0, Tmin=250, UnlimitedTmin=302.51359
limitTemperature=limitT, Type=Upper, LimitedCells=0, CellsPercent=0, Tmax=6000, UnlimitedTmax=305.54187
limitTemperature=limitT, Type=Lower, LimitedCells=0, CellsPercent=0, Tmin=250, UnlimitedTmin=305.89007
limitTemperature=limitT, Type=Upper, LimitedCells=0, CellsPercent=0, Tmax=6000, UnlimitedTmax=309.46376
limitTemperature=limitT, Type=Lower, LimitedCells=0, CellsPercent=0, Tmin=250, UnlimitedTmin=300.36634
limitTemperature=limitT, Type=Upper, LimitedCells=0, CellsPercent=0, Tmax=6000, UnlimitedTmax=300.90537
limitTemperature=limitT, Type=Lower, LimitedCells=0, CellsPercent=0, Tmin=250, UnlimitedTmin=300.20749
limitTemperature=limitT, Type=Upper, LimitedCells=0, CellsPercent=0, Tmax=6000, UnlimitedTmax=300.41767
limitTemperature=limitT, Type=Lower, LimitedCells=0, CellsPercent=0, Tmin=250, UnlimitedTmin=300.23158
limitTemperature=limitT, Type=Upper, LimitedCells=0, CellsPercent=0, Tmax=6000, UnlimitedTmax=300.30052
DICPBiCGStab:  Solving for p_rgh, Initial residual = 0.12511127, Final residual = 0.011892541, No Iterations 67
time step continuity errors : sum local = 0.059623137, global = 0.047224817, cumulative = 0.12263157
Min/max rho:1.1466996 1.1780786
DILUPBiCGStab:  Solving for epsilon, Initial residual = 0.14708364, Final residual = 0.0039859371, No Iterations 1
DILUPBiCGStab:  Solving for k, Initial residual = 0.22098338, Final residual = 0.0099934542, No Iterations 1
ExecutionTime = 0.89 s  ClockTime = 1 s

volFieldValue fluid write:
    volAverage(fluid) of T = 300.00127

volFieldValue pcb write:
    volAverage(pcb) of T = 300.04794

volFieldValue component_0 write:
    volAverage(component_0) of T = 304.96423

volFieldValue component_1 write:
    volAverage(component_1) of T = 309.75968

volFieldValue component_2 write:
    volAverage(component_2) of T = 300.84499

volFieldValue component_3 write:
    volAverage(component_3) of T = 300.42589

volFieldValue component_4 write:
    volAverage(component_4) of T = 300.31188

Time = 8


Solving for fluid region fluid
DILUPBiCGStab:  Solving for Ux, Initial residual = 0.083121436, Final residual = 0.0018096463, No Iterations 2
DILUPBiCGStab:  Solving for Uy, Initial residual = 0.074876625, Final residual = 0.0020783422, No Iterations 2

Solving energy coupled regions
Using lduPrimitiveAssembly: lduAssembly456789
DILUPBiCGStab:  Solving for h, Initial residual = 0.0028497395, Final residual = 6.2293924e-05, No Iterations 1
limitTemperature=limitT, Type=Lower, LimitedCells=0, CellsPercent=0, Tmin=250, UnlimitedTmin=299.99391
limitTemperature=limitT, Type=Upper, LimitedCells=0, CellsPercent=0, Tmax=6000, UnlimitedTmax=300.50267
limitTemperature=limitT, Type=Lower, LimitedCells=0, CellsPercent=0, Tmin=250, UnlimitedTmin=299.99639
limitTemperature=limitT, Type=Upper, LimitedCells=0, CellsPercent=0, Tmax=6000, UnlimitedTmax=301.60461
limitTemperature=limitT, Type=Lower, LimitedCells=0, CellsPercent=0, Tmin=250, UnlimitedTmin=302.90693
limitTemperature=limitT, Type=Upper, LimitedCells=0, CellsPercent=0, Tmax=6000, UnlimitedTmax=306.38253
limitTemperature=limitT, Type=Lower, LimitedCells=0, CellsPercent=0, Tmin=250, UnlimitedTmin=306.8153
limitTemperature=limitT, Type=Upper, LimitedCells=0, CellsPercent=0, Tmax=6000, UnlimitedTmax=310.66832
limitTemperature=limitT, Type=Lower, LimitedCells=0, CellsPercent=0, Tmin=250, UnlimitedTmin=300.41637
limitTemperature=limitT, Type=Upper, LimitedCells=0, CellsPercent=0, Tmax=6000, UnlimitedTmax=301.04813
limitTemperature=limitT, Type=Lower, LimitedCells=0, CellsPercent=0, Tmin=250, UnlimitedTmin=300.24619
limitTemperature=limitT, Type=Upper, LimitedCells=0, CellsPercent=0, Tmax=6000, UnlimitedTmax=300.48311
limitTemperature=limitT, Type=Lower, LimitedCells=0, CellsPercent=0, Tmin=250, UnlimitedTmin=300.25959
limitTemperature=limitT, Type=Upper, LimitedCells=0, CellsPercent=0, Tmax=6000, UnlimitedTmax=300.34457
DICPBiCGStab:  Solving for p_rgh, Initial residual = 0.17294365, Final residual = 0.010961892, No Iterations 76
time step continuity errors : sum local = 0.036039402, global = 0.0058890642, cumulative = 0.12852063
Min/max rho:1.1420496 1.1777896
DILUPBiCGStab:  Solving for epsilon, Initial residual = 0.11230812, Final residual = 0.002842958, No Iterations 1
DILUPBiCGStab:  Solving for k, Initial residual = 0.19270241, Final residual = 0.0085808564, No Iterations 1
ExecutionTime = 1.01 s  ClockTime = 1 s

volFieldValue fluid write:
    volAverage(fluid) of T = 300.00156

volFieldValue pcb write:
    volAverage(pcb) of T = 300.05966

volFieldValue component_0 write:
    volAverage(component_0) of T = 305.58555

volFieldValue component_1 write:
    volAverage(component_1) of T = 310.85147

volFieldValue component_2 write:
    volAverage(component_2) of T = 300.95256

volFieldValue component_3 write:
    volAverage(component_3) of T = 300.48204

volFieldValue component_4 write:
    volAverage(component_4) of T = 300.35366

Time = 9


Solving for fluid region fluid
DILUPBiCGStab:  Solving for Ux, Initial residual = 0.11538101, Final residual = 0.0030487944, No Iterations 2
DILUPBiCGStab:  Solving for Uy, Initial residual = 0.13791333, Final residual = 0.0032644302, No Iterations 2

Solving energy coupled regions
Using lduPrimitiveAssembly: lduAssembly456789
DILUPBiCGStab:  Solving for h, Initial residual = 0.0028924071, Final residual = 6.4815063e-05, No Iterations 1
limitTemperature=limitT, Type=Lower, LimitedCells=0, CellsPercent=0, Tmin=250, UnlimitedTmin=299.99255
limitTemperature=limitT, Type=Upper, LimitedCells=0, CellsPercent=0, Tmax=6000, UnlimitedTmax=300.30098
limitTemperature=limitT, Type=Lower, LimitedCells=0, CellsPercent=0, Tmin=250, UnlimitedTmin=299.99725
limitTemperature=limitT, Type=Upper, LimitedCells=0, CellsPercent=0, Tmax=6000, UnlimitedTmax=301.97984
limitTemperature=limitT, Type=Lower, LimitedCells=0, CellsPercent=0, Tmin=250, UnlimitedTmin=303.27545
limitTemperature=limitT, Type=Upper, LimitedCells=0, CellsPercent=0, Tmax=6000, UnlimitedTmax=307.20839
limitTemperature=limitT, Type=Lower, LimitedCells=0, CellsPercent=0, Tmin=250, UnlimitedTmin=307.72316
limitTemperature=limitT, Type=Upper, LimitedCells=0, CellsPercent=0, Tmax=6000, UnlimitedTmax=311.84305
limitTemperature=limitT, Type=Lower, LimitedCells=0, CellsPercent=0, Tmin=250, UnlimitedTmin=300.46519
limitTemperature=limitT, Type=Upper, LimitedCells=0, CellsPercent=0, Tmax=6000, UnlimitedTmax=301.18946
limitTemperature=limitT, Type=Lower, LimitedCells=0, CellsPercent=0, Tmin=250, UnlimitedTmin=300.28503
limitTemperature=limitT, Type=Upper, LimitedCells=0, CellsPercent=0, Tmax=6000, UnlimitedTmax=300.54752
limitTemperature=limitT, Type=Lower, LimitedCells=0, CellsPercent=0, Tmin=250, UnlimitedTmin=300.28966
limitTemperature=limitT, Type=Upper, LimitedCells=0, CellsPercent=0, Tmax=6000, UnlimitedTmax=300.39015
DICPBiCGStab:  Solving for p_rgh, Initial residual = 0.18873861, Final residual = 0.018528095, No Iterations 11
time step continuity errors : sum local = 0.0785154, global = 0.058948276, cumulative = 0.18746891
Min/max rho:1.137133 1.1769144
DILUPBiCGStab:  Solving for epsilon, Initial residual = 0.074725585, Final residual = 0.0023723534, No Iterations 1
DILUPBiCGStab:  Solving for k, Initial residual = 0.15830636, Final residual = 0.0020304216, No Iterations 2
ExecutionTime = 1.04 s  ClockTime = 1 s

volFieldValue fluid write:
    volAverage(fluid) of T = 300.00199

volFieldValue pcb write:
    volAverage(pcb) of T = 300.07285

volFieldValue component_0 write:
    volAverage(component_0) of T = 306.19857

volFieldValue component_1 write:
    volAverage(component_1) of T = 311.91189

volFieldValue component_2 write:
    volAverage(component_2) of T = 301.0588

volFieldValue component_3 write:
    volAverage(component_3) of T = 300.53755

volFieldValue component_4 write:
    volAverage(component_4) of T = 300.39507

Time = 10


Solving for fluid region fluid
DILUPBiCGStab:  Solving for Ux, Initial residual = 0.10187504, Final residual = 0.0024594814, No Iterations 2
DILUPBiCGStab:  Solving for Uy, Initial residual = 0.11235588, Final residual = 0.0024463865, No Iterations 2

Solving energy coupled regions
Using lduPrimitiveAssembly: lduAssembly456789
DILUPBiCGStab:  Solving for h, Initial residual = 0.002800239, Final residual = 6.1857662e-05, No Iterations 1
limitTemperature=limitT, Type=Lower, LimitedCells=0, CellsPercent=0, Tmin=250, UnlimitedTmin=299.98924
limitTemperature=limitT, Type=Upper, LimitedCells=0, CellsPercent=0, Tmax=6000, UnlimitedTmax=300.86718
limitTemperature=limitT, Type=Lower, LimitedCells=0, CellsPercent=0, Tmin=250, UnlimitedTmin=299.99676
limitTemperature=limitT, Type=Upper, LimitedCells=0, CellsPercent=0, Tmax=6000, UnlimitedTmax=302.38183
limitTemperature=limitT, Type=Lower, LimitedCells=0, CellsPercent=0, Tmin=250, UnlimitedTmin=303.60814
limitTemperature=limitT, Type=Upper, LimitedCells=0, CellsPercent=0, Tmax=6000, UnlimitedTmax=308.02023
limitTemperature=limitT, Type=Lower, LimitedCells=0, CellsPercent=0, Tmin=250, UnlimitedTmin=308.59458
limitTemperature=limitT, Type=Upper, LimitedCells=0, CellsPercent=0, Tmax=6000, UnlimitedTmax=313.00536
limitTemperature=limitT, Type=Lower, LimitedCells=0, CellsPercent=0, Tmin=250, UnlimitedTmin=300.50648
limitTemperature=limitT, Type=Upper, LimitedCells=0, CellsPercent=0, Tmax=6000, UnlimitedTmax=301.32936
limitTemperature=limitT, Type=Lower, LimitedCells=0, CellsPercent=0, Tmin=250, UnlimitedTmin=300.32196
limitTemperature=limitT, Type=Upper, LimitedCells=0, CellsPercent=0, Tmax=6000, UnlimitedTmax=300.61196
limitTemperature=limitT, Type=Lower, LimitedCells=0, CellsPercent=0, Tmin=250, UnlimitedTmin=300.3198
limitTemperature=limitT, Type=Upper, LimitedCells=0, CellsPercent=0, Tmax=6000, UnlimitedTmax=300.43662
DICPBiCGStab:  Solving for p_rgh, Initial residual = 0.26078437, Final residual = 0.025235913, No Iterations 17
time step continuity errors : sum local = 0.091234549, global = 0.050951952, cumulative = 0.23842086
Min/max rho:1.1326432 1.1767068
DILUPBiCGStab:  Solving for epsilon, Initial residual = 0.062444933, Final residual = 0.0023692512, No Iterations 1
DILUPBiCGStab:  Solving for k, Initial residual = 0.14797762, Final residual = 0.0035816916, No Iterations 2
ExecutionTime = 1.11 s  ClockTime = 1 s

volFieldValue fluid write:
    volAverage(fluid) of T = 300.0025

volFieldValue pcb write:
    volAverage(pcb) of T = 300.08685

volFieldValue component_0 write:
    volAverage(component_0) of T = 306.81526

volFieldValue component_1 write:
    volAverage(component_1) of T = 312.927

volFieldValue component_2 write:
    volAverage(component_2) of T = 301.16286

volFieldValue component_3 write:
    volAverage(component_3) of T = 300.5925

volFieldValue component_4 write:
    volAverage(component_4) of T = 300.43615

Time = 11


Solving for fluid region fluid
DILUPBiCGStab:  Solving for Ux, Initial residual = 0.10817374, Final residual = 0.0030162073, No Iterations 2
DILUPBiCGStab:  Solving for Uy, Initial residual = 0.094713606, Final residual = 0.0021181438, No Iterations 2

Solving energy coupled regions
Using lduPrimitiveAssembly: lduAssembly456789
DILUPBiCGStab:  Solving for h, Initial residual = 0.0027989039, Final residual = 6.9632233e-05, No Iterations 1
limitTemperature=limitT, Type=Lower, LimitedCells=0, CellsPercent=0, Tmin=250, UnlimitedTmin=299.98894
limitTemperature=limitT, Type=Upper, LimitedCells=0, CellsPercent=0, Tmax=6000, UnlimitedTmax=300.49411
limitTemperature=limitT, Type=Lower, LimitedCells=0, CellsPercent=0, Tmin=250, UnlimitedTmin=299.99619
limitTemperature=limitT, Type=Upper, LimitedCells=0, CellsPercent=0, Tmax=6000, UnlimitedTmax=302.80549
limitTemperature=limitT, Type=Lower, LimitedCells=0, CellsPercent=0, Tmin=250, UnlimitedTmin=303.9106
limitTemperature=limitT, Type=Upper, LimitedCells=0, CellsPercent=0, Tmax=6000, UnlimitedTmax=308.81787
limitTemperature=limitT, Type=Lower, LimitedCells=0, CellsPercent=0, Tmin=250, UnlimitedTmin=309.44942
limitTemperature=limitT, Type=Upper, LimitedCells=0, CellsPercent=0, Tmax=6000, UnlimitedTmax=314.12373
limitTemperature=limitT, Type=Lower, LimitedCells=0, CellsPercent=0, Tmin=250, UnlimitedTmin=300.54411
limitTemperature=limitT, Type=Upper, LimitedCells=0, CellsPercent=0, Tmax=6000, UnlimitedTmax=301.46767
limitTemperature=limitT, Type=Lower, LimitedCells=0, CellsPercent=0, Tmin=250, UnlimitedTmin=300.35919
limitTemperature=limitT, Type=Upper, LimitedCells=0, CellsPercent=0, Tmax=6000, UnlimitedTmax=300.67572
limitTemperature=limitT, Type=Lower, LimitedCells=0, CellsPercent=0, Tmin=250, UnlimitedTmin=300.34942
limitTemperature=limitT, Type=Upper, LimitedCells=0, CellsPercent=0, Tmax=6000, UnlimitedTmax=300.48283
DICPBiCGStab:  Solving for p_rgh, Initial residual = 0.25961755, Final residual = 0.025120282, No Iterations 20
time step continuity errors : sum local = 0.093877391, global = 0.01844231, cumulative = 0.25686317
Min/max rho:1.1282827 1.1766885
DILUPBiCGStab:  Solving for epsilon, Initial residual = 0.053751182, Final residual = 0.0021179035, No Iterations 1
DILUPBiCGStab:  Solving for k, Initial residual = 0.12661978, Final residual = 0.0030197188, No Iterations 2
ExecutionTime = 1.19 s  ClockTime = 1 s

volFieldValue fluid write:
    volAverage(fluid) of T = 300.00295

volFieldValue pcb write:
    volAverage(pcb) of T = 300.10211

volFieldValue component_0 write:
    volAverage(component_0) of T = 307.36526

volFieldValue component_1 write:
    volAverage(component_1) of T = 313.91994

volFieldValue component_2 write:
    volAverage(component_2) of T = 301.26479

volFieldValue component_3 write:
    volAverage(component_3) of T = 300.64682

volFieldValue component_4 write:
    volAverage(component_4) of T = 300.4768

Time = 12


Solving for fluid region fluid
DILUPBiCGStab:  Solving for Ux, Initial residual = 0.11202364, Final residual = 0.0036331972, No Iterations 2
DILUPBiCGStab:  Solving for Uy, Initial residual = 0.080074139, Final residual = 0.002142181, No Iterations 2

Solving energy coupled regions
Using lduPrimitiveAssembly: lduAssembly456789
DILUPBiCGStab:  Solving for h, Initial residual = 0.0028438201, Final residual = 8.023648e-05, No Iterations 1
limitTemperature=limitT, Type=Lower, LimitedCells=0, CellsPercent=0, Tmin=250, UnlimitedTmin=299.98941
limitTemperature=limitT, Type=Upper, LimitedCells=0, CellsPercent=0, Tmax=6000, UnlimitedTmax=300.73994
limitTemperature=limitT, Type=Lower, LimitedCells=0, CellsPercent=0, Tmin=250, UnlimitedTmin=299.9973
limitTemperature=limitT, Type=Upper, LimitedCells=0, CellsPercent=0, Tmax=6000, UnlimitedTmax=303.25044
limitTemperature=limitT, Type=Lower, LimitedCells=0, CellsPercent=0, Tmin=250, UnlimitedTmin=303.85514
limitTemperature=limitT, Type=Upper, LimitedCells=0, CellsPercent=0, Tmax=6000, UnlimitedTmax=309.60139
limitTemperature=limitT, Type=Lower, LimitedCells=0, CellsPercent=0, Tmin=250, UnlimitedTmin=310.3291
limitTemperature=limitT, Type=Upper, LimitedCells=0, CellsPercent=0, Tmax=6000, UnlimitedTmax=315.20935
limitTemperature=limitT, Type=Lower, LimitedCells=0, CellsPercent=0, Tmin=250, UnlimitedTmin=300.583
limitTemperature=limitT, Type=Upper, LimitedCells=0, CellsPercent=0, Tmax=6000, UnlimitedTmax=301.60443
limitTemperature=limitT, Type=Lower, LimitedCells=0, CellsPercent=0, Tmin=250, UnlimitedTmin=300.39647
limitTemperature=limitT, Type=Upper, LimitedCells=0, CellsPercent=0, Tmax=6000, UnlimitedTmax=300.73882
limitTemperature=limitT, Type=Lower, LimitedCells=0, CellsPercent=0, Tmin=250, UnlimitedTmin=300.37868
limitTemperature=limitT, Type=Upper, LimitedCells=0, CellsPercent=0, Tmax=6000, UnlimitedTmax=300.52861
DICPBiCGStab:  Solving for p_rgh, Initial residual = 0.21056853, Final residual = 0.020893784, No Iterations 27
time step continuity errors : sum local = 0.088179977, global = -0.0061845203, cumulative = 0.25067865
Min/max rho:1.1241415 1.1766629
DILUPBiCGStab:  Solving for epsilon, Initial residual = 0.045175489, Final residual = 0.0017445913, No Iterations 1
DILUPBiCGStab:  Solving for k, Initial residual = 0.11365066, Final residual = 0.0018183253, No Iterations 2
ExecutionTime = 1.23 s  ClockTime = 1 s

volFieldValue fluid write:
    volAverage(fluid) of T = 300.0036

volFieldValue pcb write:
    volAverage(pcb) of T = 300.11899

volFieldValue component_0 write:
    volAverage(component_0) of T = 307.86083

volFieldValue component_1 write:
    volAverage(component_1) of T = 314.87689

volFieldValue component_2 write:
    volAverage(component_2) of T = 301.365

volFieldValue component_3 write:
    volAverage(component_3) of T = 300.70039

volFieldValue component_4 write:
    volAverage(component_4) of T = 300.517

Time = 13


Solving for fluid region fluid
DILUPBiCGStab:  Solving for Ux, Initial residual = 0.11869212, Final residual = 0.00066444305, No Iterations 3
DILUPBiCGStab:  Solving for Uy, Initial residual = 0.099185918, Final residual = 0.0048579799, No Iterations 2

Solving energy coupled regions
Using lduPrimitiveAssembly: lduAssembly456789
DILUPBiCGStab:  Solving for h, Initial residual = 0.0027755051, Final residual = 7.0262763e-05, No Iterations 1
limitTemperature=limitT, Type=Lower, LimitedCells=0, CellsPercent=0, Tmin=250, UnlimitedTmin=299.99088
limitTemperature=limitT, Type=Upper, LimitedCells=0, CellsPercent=0, Tmax=6000, UnlimitedTmax=300.53502
limitTemperature=limitT, Type=Lower, LimitedCells=0, CellsPercent=0, Tmin=250, UnlimitedTmin=299.99635
limitTemperature=limitT, Type=Upper, LimitedCells=0, CellsPercent=0, Tmax=6000, UnlimitedTmax=303.7132
limitTemperature=limitT, Type=Lower, LimitedCells=0, CellsPercent=0, Tmin=250, UnlimitedTmin=303.70061
limitTemperature=limitT, Type=Upper, LimitedCells=0, CellsPercent=0, Tmax=6000, UnlimitedTmax=310.36989
limitTemperature=limitT, Type=Lower, LimitedCells=0, CellsPercent=0, Tmin=250, UnlimitedTmin=311.18748
limitTemperature=limitT, Type=Upper, LimitedCells=0, CellsPercent=0, Tmax=6000, UnlimitedTmax=316.24968
limitTemperature=limitT, Type=Lower, LimitedCells=0, CellsPercent=0, Tmin=250, UnlimitedTmin=300.62229
limitTemperature=limitT, Type=Upper, LimitedCells=0, CellsPercent=0, Tmax=6000, UnlimitedTmax=301.73915
limitTemperature=limitT, Type=Lower, LimitedCells=0, CellsPercent=0, Tmin=250, UnlimitedTmin=300.43011
limitTemperature=limitT, Type=Upper, LimitedCells=0, CellsPercent=0, Tmax=6000, UnlimitedTmax=300.80102
limitTemperature=limitT, Type=Lower, LimitedCells=0, CellsPercent=0, Tmin=250, UnlimitedTmin=300.40693
limitTemperature=limitT, Type=Upper, LimitedCells=0, CellsPercent=0, Tmax=6000, UnlimitedTmax=300.57418
DICPBiCGStab:  Solving for p_rgh, Initial residual = 0.16349964, Final residual = 0.016290584, No Iterations 25
time step continuity errors : sum local = 0.079250595, global = -0.026730985, cumulative = 0.22394767
Min/max rho:1.1201881 1.1766627
DILUPBiCGStab:  Solving for epsilon, Initial residual = 0.041005725, Final residual = 0.0014872056, No Iterations 1
DILUPBiCGStab:  Solving for k, Initial residual = 0.1035946, Final residual = 0.0012060189, No Iterations 2
ExecutionTime = 1.32 s  ClockTime = 1 s

volFieldValue fluid write:
    volAverage(fluid) of T = 300.00445

volFieldValue pcb write:
    volAverage(pcb) of T = 300.1368

volFieldValue component_0 write:
    volAverage(component_0) of T = 308.32807

volFieldValue component_1 write:
    volAverage(component_1) of T = 315.82785

volFieldValue component_2 write:
    volAverage(component_2) of T = 301.46445

volFieldValue component_3 write:
    volAverage(component_3) of T = 300.75356

volFieldValue component_4 write:
    volAverage(component_4) of T = 300.55703

Time = 14


Solving for fluid region fluid
DILUPBiCGStab:  Solving for Ux, Initial residual = 0.11638439, Final residual = 0.0047353334, No Iterations 2
DILUPBiCGStab:  Solving for Uy, Initial residual = 0.11170847, Final residual = 0.0026108961, No Iterations 2

Solving energy coupled regions
Using lduPrimitiveAssembly: lduAssembly456789
DILUPBiCGStab:  Solving for h, Initial residual = 0.002717958, Final residual = 7.0194863e-05, No Iterations 1
limitTemperature=limitT, Type=Lower, LimitedCells=0, CellsPercent=0, Tmin=250, UnlimitedTmin=299.99143
limitTemperature=limitT, Type=Upper, LimitedCells=0, CellsPercent=0, Tmax=6000, UnlimitedTmax=300.86731
limitTemperature=limitT, Type=Lower, LimitedCells=0, CellsPercent=0, Tmin=250, UnlimitedTmin=299.99555
limitTemperature=limitT, Type=Upper, LimitedCells=0, CellsPercent=0, Tmax=6000, UnlimitedTmax=304.18887
limitTemperature=limitT, Type=Lower, LimitedCells=0, CellsPercent=0, Tmin=250, UnlimitedTmin=303.87414
limitTemperature=limitT, Type=Upper, LimitedCells=0, CellsPercent=0, Tmax=6000, UnlimitedTmax=311.12628
limitTemperature=limitT, Type=Lower, LimitedCells=0, CellsPercent=0, Tmin=250, UnlimitedTmin=312.02398
limitTemperature=limitT, Type=Upper, LimitedCells=0, CellsPercent=0, Tmax=6000, UnlimitedTmax=317.31098
limitTemperature=limitT, Type=Lower, LimitedCells=0, CellsPercent=0, Tmin=250, UnlimitedTmin=300.64667
limitTemperature=limitT, Type=Upper, LimitedCells=0, CellsPercent=0, Tmax=6000, UnlimitedTmax=301.87358
limitTemperature=limitT, Type=Lower, LimitedCells=0, CellsPercent=0, Tmin=250, UnlimitedTmin=300.45974
limitTemperature=limitT, Type=Upper, LimitedCells=0, CellsPercent=0, Tmax=6000, UnlimitedTmax=300.86237
limitTemperature=limitT, Type=Lower, LimitedCells=0, CellsPercent=0, Tmin=250, UnlimitedTmin=300.43314
limitTemperature=limitT, Type=Upper, LimitedCells=0, CellsPercent=0, Tmax=6000, UnlimitedTmax=300.61947
DICPBiCGStab:  Solving for p_rgh, Initial residual = 0.12803442, Final residual = 0.012801556, No Iterations 15
time step continuity errors : sum local = 0.084975496, global = -0.031194084, cumulative = 0.19275358
Min/max rho:1.1162123 1.1766612
DILUPBiCGStab:  Solving for epsilon, Initial residual = 0.038987712, Final residual = 0.0013498682, No Iterations 1
bounding epsilon, min: -0.038798214 max: 10 average: 0.18361925
DILUPBiCGStab:  Solving for k, Initial residual = 0.10092279, Final residual = 0.0050090505, No Iterations 1
ExecutionTime = 1.4 s  ClockTime = 1 s

volFieldValue fluid write:
    volAverage(fluid) of T = 300.00531

volFieldValue pcb write:
    volAverage(pcb) of T = 300.15647

volFieldValue component_0 write:
    volAverage(component_0) of T = 308.80245

volFieldValue component_1 write:
    volAverage(component_1) of T = 316.71079

volFieldValue component_2 write:
    volAverage(component_2) of T = 301.56267

volFieldValue component_3 write:
    volAverage(component_3) of T = 300.80617

volFieldValue component_4 write:
    volAverage(component_4) of T = 300.59679

Time = 15


Solving for fluid region fluid
DILUPBiCGStab:  Solving for Ux, Initial residual = 0.10958949, Final residual = 0.003136295, No Iterations 2
DILUPBiCGStab:  Solving for Uy, Initial residual = 0.10556985, Final residual = 0.0042252515, No Iterations 2

Solving energy coupled regions
Using lduPrimitiveAssembly: lduAssembly456789
DILUPBiCGStab:  Solving for h, Initial residual = 0.0027087537, Final residual = 6.978124e-05, No Iterations 1
limitTemperature=limitT, Type=Lower, LimitedCells=0, CellsPercent=0, Tmin=250, UnlimitedTmin=299.99209
limitTemperature=limitT, Type=Upper, LimitedCells=0, CellsPercent=0, Tmax=6000, UnlimitedTmax=300.78655
limitTemperature=limitT, Type=Lower, LimitedCells=0, CellsPercent=0, Tmin=250, UnlimitedTmin=299.99641
limitTemperature=limitT, Type=Upper, LimitedCells=0, CellsPercent=0, Tmax=6000, UnlimitedTmax=304.67682
limitTemperature=limitT, Type=Lower, LimitedCells=0, CellsPercent=0, Tmin=250, UnlimitedTmin=303.60896
limitTemperature=limitT, Type=Upper, LimitedCells=0, CellsPercent=0, Tmax=6000, UnlimitedTmax=311.86884
limitTemperature=limitT, Type=Lower, LimitedCells=0, CellsPercent=0, Tmin=250, UnlimitedTmin=312.81617
limitTemperature=limitT, Type=Upper, LimitedCells=0, CellsPercent=0, Tmax=6000, UnlimitedTmax=318.34536
limitTemperature=limitT, Type=Lower, LimitedCells=0, CellsPercent=0, Tmin=250, UnlimitedTmin=300.64389
limitTemperature=limitT, Type=Upper, LimitedCells=0, CellsPercent=0, Tmax=6000, UnlimitedTmax=302.0062
limitTemperature=limitT, Type=Lower, LimitedCells=0, CellsPercent=0, Tmin=250, UnlimitedTmin=300.48793
limitTemperature=limitT, Type=Upper, LimitedCells=0, CellsPercent=0, Tmax=6000, UnlimitedTmax=300.92314
limitTemperature=limitT, Type=Lower, LimitedCells=0, CellsPercent=0, Tmin=250, UnlimitedTmin=300.45815
limitTemperature=limitT, Type=Upper, LimitedCells=0, CellsPercent=0, Tmax=6000, UnlimitedTmax=300.66455
DICPBiCGStab:  Solving for p_rgh, Initial residual = 0.13388871, Final residual = 0.013215164, No Iterations 19
time step continuity errors : sum local = 0.087705352, global = -0.042743927, cumulative = 0.15000965
Min/max rho:1.1124862 1.1766645
DILUPBiCGStab:  Solving for epsilon, Initial residual = 0.03356967, Final residual = 0.0010458259, No Iterations 1
bounding epsilon, min: -0.024672675 max: 10 average: 0.17619626
DILUPBiCGStab:  Solving for k, Initial residual = 0.091316298, Final residual = 0.0042011007, No Iterations 1
ExecutionTime = 1.43 s  ClockTime = 1 s

volFieldValue fluid write:
    volAverage(fluid) of T = 300.00621

volFieldValue pcb write:
    volAverage(pcb) of T = 300.17693

volFieldValue component_0 write:
    volAverage(component_0) of T = 309.29477

volFieldValue component_1 write:
    volAverage(component_1) of T = 317.56441

volFieldValue component_2 write:
    volAverage(component_2) of T = 301.6596

volFieldValue component_3 write:
    volAverage(component_3) of T = 300.85825

volFieldValue component_4 write:
    volAverage(component_4) of T = 300.63619

Time = 16


Solving for fluid region fluid
DILUPBiCGStab:  Solving for Ux, Initial residual = 0.097771573, Final residual = 0.0020964416, No Iterations 2
DILUPBiCGStab:  Solving for Uy, Initial residual = 0.087334949, Final residual = 0.0019316134, No Iterations 2

Solving energy coupled regions
Using lduPrimitiveAssembly: lduAssembly456789
DILUPBiCGStab:  Solving for h, Initial residual = 0.0027495856, Final residual = 7.7596764e-05, No Iterations 1
limitTemperature=limitT, Type=Lower, LimitedCells=0, CellsPercent=0, Tmin=250, UnlimitedTmin=299.99279
limitTemperature=limitT, Type=Upper, LimitedCells=0, CellsPercent=0, Tmax=6000, UnlimitedTmax=301.01528
limitTemperature=limitT, Type=Lower, LimitedCells=0, CellsPercent=0, Tmin=250, UnlimitedTmin=299.99884
limitTemperature=limitT, Type=Upper, LimitedCells=0, CellsPercent=0, Tmax=6000, UnlimitedTmax=305.17571
limitTemperature=limitT, Type=Lower, LimitedCells=0, CellsPercent=0, Tmin=250, UnlimitedTmin=303.64261
limitTemperature=limitT, Type=Upper, LimitedCells=0, CellsPercent=0, Tmax=6000, UnlimitedTmax=312.59857
limitTemperature=limitT, Type=Lower, LimitedCells=0, CellsPercent=0, Tmin=250, UnlimitedTmin=313.53848
limitTemperature=limitT, Type=Upper, LimitedCells=0, CellsPercent=0, Tmax=6000, UnlimitedTmax=319.34269
limitTemperature=limitT, Type=Lower, LimitedCells=0, CellsPercent=0, Tmin=250, UnlimitedTmin=300.62089
limitTemperature=limitT, Type=Upper, LimitedCells=0, CellsPercent=0, Tmax=6000, UnlimitedTmax=302.13724
limitTemperature=limitT, Type=Lower, LimitedCells=0, CellsPercent=0, Tmin=250, UnlimitedTmin=300.51784
limitTemperature=limitT, Type=Upper, LimitedCells=0, CellsPercent=0, Tmax=6000, UnlimitedTmax=300.98333
limitTemperature=limitT, Type=Lower, LimitedCells=0, CellsPercent=0, Tmin=250, UnlimitedTmin=300.47694
limitTemperature=limitT, Type=Upper, LimitedCells=0, CellsPercent=0, Tmax=6000, UnlimitedTmax=300.70935
DICPBiCGStab:  Solving for p_rgh, Initial residual = 0.16200782, Final residual = 0.015761035, No Iterations 23
time step continuity errors : sum local = 0.090625229, global = -0.062047241, cumulative = 0.087962413
Min/max rho:1.1089643 1.1766633
DILUPBiCGStab:  Solving for epsilon, Initial residual = 0.030681867, Final residual = 0.00089435539, No Iterations 1
DILUPBiCGStab:  Solving for k, Initial residual = 0.088019561, Final residual = 0.0039000541, No Iterations 1
ExecutionTime = 1.51 s  ClockTime = 1 s

volFieldValue fluid write:
    volAverage(fluid) of T = 300.00686

volFieldValue pcb write:
    volAverage(pcb) of T = 300.19737

volFieldValue component_0 write:
    volAverage(component_0) of T = 309.79558

volFieldValue component_1 write:
    volAverage(component_1) of T = 318.31796

volFieldValue component_2 write:
    volAverage(component_2) of T = 301.75497

volFieldValue component_3 write:
    volAverage(component_3) of T = 300.90965

volFieldValue component_4 write:
    volAverage(component_4) of T = 300.67519

Time = 17


Solving for fluid region fluid
DILUPBiCGStab:  Solving for Ux, Initial residual = 0.092320513, Final residual = 0.001995107, No Iterations 2
DILUPBiCGStab:  Solving for Uy, Initial residual = 0.086855692, Final residual = 0.0015640141, No Iterations 2

Solving energy coupled regions
Using lduPrimitiveAssembly: lduAssembly456789
DILUPBiCGStab:  Solving for h, Initial residual = 0.0026942789, Final residual = 7.1142547e-05, No Iterations 1
limitTemperature=limitT, Type=Lower, LimitedCells=0, CellsPercent=0, Tmin=250, UnlimitedTmin=299.9935
limitTemperature=limitT, Type=Upper, LimitedCells=0, CellsPercent=0, Tmax=6000, UnlimitedTmax=300.9284
limitTemperature=limitT, Type=Lower, LimitedCells=0, CellsPercent=0, Tmin=250, UnlimitedTmin=299.99914
limitTemperature=limitT, Type=Upper, LimitedCells=0, CellsPercent=0, Tmax=6000, UnlimitedTmax=305.68013
limitTemperature=limitT, Type=Lower, LimitedCells=0, CellsPercent=0, Tmin=250, UnlimitedTmin=303.98716
limitTemperature=limitT, Type=Upper, LimitedCells=0, CellsPercent=0, Tmax=6000, UnlimitedTmax=313.31164
limitTemperature=limitT, Type=Lower, LimitedCells=0, CellsPercent=0, Tmin=250, UnlimitedTmin=314.10448
limitTemperature=limitT, Type=Upper, LimitedCells=0, CellsPercent=0, Tmax=6000, UnlimitedTmax=320.27625
limitTemperature=limitT, Type=Lower, LimitedCells=0, CellsPercent=0, Tmin=250, UnlimitedTmin=300.60282
limitTemperature=limitT, Type=Upper, LimitedCells=0, CellsPercent=0, Tmax=6000, UnlimitedTmax=302.26615
limitTemperature=limitT, Type=Lower, LimitedCells=0, CellsPercent=0, Tmin=250, UnlimitedTmin=300.54836
limitTemperature=limitT, Type=Upper, LimitedCells=0, CellsPercent=0, Tmax=6000, UnlimitedTmax=301.04266
limitTemperature=limitT, Type=Lower, LimitedCells=0, CellsPercent=0, Tmin=250, UnlimitedTmin=300.4887
limitTemperature=limitT, Type=Upper, LimitedCells=0, CellsPercent=0, Tmax=6000, UnlimitedTmax=300.7537
DICPBiCGStab:  Solving for p_rgh, Initial residual = 0.17564066, Final residual = 0.017549857, No Iterations 45
time step continuity errors : sum local = 0.094115025, global = -0.066884281, cumulative = 0.021078132
Min/max rho:1.1057233 1.1766604
DILUPBiCGStab:  Solving for epsilon, Initial residual = 0.029590475, Final residual = 0.00082460266, No Iterations 1
DILUPBiCGStab:  Solving for k, Initial residual = 0.083959407, Final residual = 0.0036740525, No Iterations 1
bounding k, min: -0.020274575 max: 1.0001783 average: 0.063322863
ExecutionTime = 1.6 s  ClockTime = 1 s

volFieldValue fluid write:
    volAverage(fluid) of T = 300.00758

volFieldValue pcb write:
    volAverage(pcb) of T = 300.21899

volFieldValue component_0 write:
    volAverage(component_0) of T = 310.29389

volFieldValue component_1 write:
    volAverage(component_1) of T = 319.03572

volFieldValue component_2 write:
    volAverage(component_2) of T = 301.84968

volFieldValue component_3 write:
    volAverage(component_3) of T = 300.96071

volFieldValue component_4 write:
    volAverage(component_4) of T = 300.71422

Time = 18


Solving for fluid region fluid
DILUPBiCGStab:  Solving for Ux, Initial residual = 0.087808198, Final residual = 0.0017497534, No Iterations 2
DILUPBiCGStab:  Solving for Uy, Initial residual = 0.13249304, Final residual = 0.0025019996, No Iterations 2

Solving energy coupled regions
Using lduPrimitiveAssembly: lduAssembly456789
DILUPBiCGStab:  Solving for h, Initial residual = 0.0026461667, Final residual = 6.8511725e-05, No Iterations 1
limitTemperature=limitT, Type=Lower, LimitedCells=0, CellsPercent=0, Tmin=250, UnlimitedTmin=299.99413
limitTemperature=limitT, Type=Upper, LimitedCells=0, CellsPercent=0, Tmax=6000, UnlimitedTmax=301.08358
limitTemperature=limitT, Type=Lower, LimitedCells=0, CellsPercent=0, Tmin=250, UnlimitedTmin=299.99935
limitTemperature=limitT, Type=Upper, LimitedCells=0, CellsPercent=0, Tmax=6000, UnlimitedTmax=306.19265
limitTemperature=limitT, Type=Lower, LimitedCells=0, CellsPercent=0, Tmin=250, UnlimitedTmin=304.35684
limitTemperature=limitT, Type=Upper, LimitedCells=0, CellsPercent=0, Tmax=6000, UnlimitedTmax=314.01307
limitTemperature=limitT, Type=Lower, LimitedCells=0, CellsPercent=0, Tmin=250, UnlimitedTmin=314.67228
limitTemperature=limitT, Type=Upper, LimitedCells=0, CellsPercent=0, Tmax=6000, UnlimitedTmax=321.17112
limitTemperature=limitT, Type=Lower, LimitedCells=0, CellsPercent=0, Tmin=250, UnlimitedTmin=300.59646
limitTemperature=limitT, Type=Upper, LimitedCells=0, CellsPercent=0, Tmax=6000, UnlimitedTmax=302.39403
limitTemperature=limitT, Type=Lower, LimitedCells=0, CellsPercent=0, Tmin=250, UnlimitedTmin=300.5751
limitTemperature=limitT, Type=Upper, LimitedCells=0, CellsPercent=0, Tmax=6000, UnlimitedTmax=301.10165
limitTemperature=limitT, Type=Lower, LimitedCells=0, CellsPercent=0, Tmin=250, UnlimitedTmin=300.49247
limitTemperature=limitT, Type=Upper, LimitedCells=0, CellsPercent=0, Tmax=6000, UnlimitedTmax=300.79788
DICPBiCGStab:  Solving for p_rgh, Initial residual = 0.20472936, Final residual = 0.02020959, No Iterations 103
time step continuity errors : sum local = 0.086583833, global = 6.7074029e-05, cumulative = 0.021145206
Min/max rho:1.1026864 1.1766621
DILUPBiCGStab:  Solving for epsilon, Initial residual = 0.030970383, Final residual = 0.001037329, No Iterations 1
DILUPBiCGStab:  Solving for k, Initial residual = 0.084335735, Final residual = 0.0041338996, No Iterations 1
bounding k, min: -0.00035487652 max: 0.84528727 average: 0.062580618
ExecutionTime = 1.72 s  ClockTime = 1 s

volFieldValue fluid write:
    volAverage(fluid) of T = 300.0081

volFieldValue pcb write:
    volAverage(pcb) of T = 300.24003

volFieldValue component_0 write:
    volAverage(component_0) of T = 310.79211

volFieldValue component_1 write:
    volAverage(component_1) of T = 319.68082

volFieldValue component_2 write:
    volAverage(component_2) of T = 301.94257

volFieldValue component_3 write:
    volAverage(component_3) of T = 301.01173

volFieldValue component_4 write:
    volAverage(component_4) of T = 300.75257

Time = 19


Solving for fluid region fluid
DILUPBiCGStab:  Solving for Ux, Initial residual = 0.13983038, Final residual = 0.0031669024, No Iterations 2
DILUPBiCGStab:  Solving for Uy, Initial residual = 0.18806303, Final residual = 0.0039096711, No Iterations 2

Solving energy coupled regions
Using lduPrimitiveAssembly: lduAssembly456789
DILUPBiCGStab:  Solving for h, Initial residual = 0.0028092032, Final residual = 0.0001091612, No Iterations 1
limitTemperature=limitT, Type=Lower, LimitedCells=0, CellsPercent=0, Tmin=250, UnlimitedTmin=299.99434
limitTemperature=limitT, Type=Upper, LimitedCells=0, CellsPercent=0, Tmax=6000, UnlimitedTmax=301.342
limitTemperature=limitT, Type=Lower, LimitedCells=0, CellsPercent=0, Tmin=250, UnlimitedTmin=299.99954
limitTemperature=limitT, Type=Upper, LimitedCells=0, CellsPercent=0, Tmax=6000, UnlimitedTmax=306.70807
limitTemperature=limitT, Type=Lower, LimitedCells=0, CellsPercent=0, Tmin=250, UnlimitedTmin=304.69133
limitTemperature=limitT, Type=Upper, LimitedCells=0, CellsPercent=0, Tmax=6000, UnlimitedTmax=314.70085
limitTemperature=limitT, Type=Lower, LimitedCells=0, CellsPercent=0, Tmin=250, UnlimitedTmin=314.98059
limitTemperature=limitT, Type=Upper, LimitedCells=0, CellsPercent=0, Tmax=6000, UnlimitedTmax=322.04271
limitTemperature=limitT, Type=Lower, LimitedCells=0, CellsPercent=0, Tmin=250, UnlimitedTmin=300.59044
limitTemperature=limitT, Type=Upper, LimitedCells=0, CellsPercent=0, Tmax=6000, UnlimitedTmax=302.52123
limitTemperature=limitT, Type=Lower, LimitedCells=0, CellsPercent=0, Tmin=250, UnlimitedTmin=300.59629
limitTemperature=limitT, Type=Upper, LimitedCells=0, CellsPercent=0, Tmax=6000, UnlimitedTmax=301.16012
limitTemperature=limitT, Type=Lower, LimitedCells=0, CellsPercent=0, Tmin=250, UnlimitedTmin=300.49878
limitTemperature=limitT, Type=Upper, LimitedCells=0, CellsPercent=0, Tmax=6000, UnlimitedTmax=300.84195
DICPBiCGStab:  Solving for p_rgh, Initial residual = 0.2572526, Final residual = 0.024286581, No Iterations 81
time step continuity errors : sum local = 0.074261589, global = -0.02016019, cumulative = 0.00098501577
Min/max rho:1.0999993 1.1769681
DILUPBiCGStab:  Solving for epsilon, Initial residual = 0.028248935, Final residual = 0.00099545427, No Iterations 1
DILUPBiCGStab:  Solving for k, Initial residual = 0.07671004, Final residual = 0.0037846145, No Iterations 1
bounding k, min: -0.00021627802 max: 0.72793724 average: 0.0614264
ExecutionTime = 1.82 s  ClockTime = 2 s

volFieldValue fluid write:
    volAverage(fluid) of T = 300.00867

volFieldValue pcb write:
    volAverage(pcb) of T = 300.26089

volFieldValue component_0 write:
    volAverage(component_0) of T = 311.26233

volFieldValue component_1 write:
    volAverage(component_1) of T = 320.25667

volFieldValue component_2 write:
    volAverage(component_2) of T = 302.0325

volFieldValue component_3 write:
    volAverage(component_3) of T = 301.06228

volFieldValue component_4 write:
    volAverage(component_4) of T = 300.79002

Time = 20


Solving for fluid region fluid
DILUPBiCGStab:  Solving for Ux, Initial residual = 0.20620246, Final residual = 0.0045104438, No Iterations 2
DILUPBiCGStab:  Solving for Uy, Initial residual = 0.16786851, Final residual = 0.0032949681, No Iterations 2

Solving energy coupled regions
Using lduPrimitiveAssembly: lduAssembly456789
DILUPBiCGStab:  Solving for h, Initial residual = 0.0026450022, Final residual = 8.0681505e-05, No Iterations 1
limitTemperature=limitT, Type=Lower, LimitedCells=0, CellsPercent=0, Tmin=250, UnlimitedTmin=299.99435
limitTemperature=limitT, Type=Upper, LimitedCells=0, CellsPercent=0, Tmax=6000, UnlimitedTmax=301.2505
limitTemperature=limitT, Type=Lower, LimitedCells=0, CellsPercent=0, Tmin=250, UnlimitedTmin=299.99969
limitTemperature=limitT, Type=Upper, LimitedCells=0, CellsPercent=0, Tmax=6000, UnlimitedTmax=307.23016
limitTemperature=limitT, Type=Lower, LimitedCells=0, CellsPercent=0, Tmin=250, UnlimitedTmin=305.2008
limitTemperature=limitT, Type=Upper, LimitedCells=0, CellsPercent=0, Tmax=6000, UnlimitedTmax=315.36847
limitTemperature=limitT, Type=Lower, LimitedCells=0, CellsPercent=0, Tmin=250, UnlimitedTmin=315.04628
limitTemperature=limitT, Type=Upper, LimitedCells=0, CellsPercent=0, Tmax=6000, UnlimitedTmax=322.85989
limitTemperature=limitT, Type=Lower, LimitedCells=0, CellsPercent=0, Tmin=250, UnlimitedTmin=300.6084
limitTemperature=limitT, Type=Upper, LimitedCells=0, CellsPercent=0, Tmax=6000, UnlimitedTmax=302.64585
limitTemperature=limitT, Type=Lower, LimitedCells=0, CellsPercent=0, Tmin=250, UnlimitedTmin=300.61072
limitTemperature=limitT, Type=Upper, LimitedCells=0, CellsPercent=0, Tmax=6000, UnlimitedTmax=301.21778
limitTemperature=limitT, Type=Lower, LimitedCells=0, CellsPercent=0, Tmin=250, UnlimitedTmin=300.50434
limitTemperature=limitT, Type=Upper, LimitedCells=0, CellsPercent=0, Tmax=6000, UnlimitedTmax=300.88534
DICPBiCGStab:  Solving for p_rgh, Initial residual = 0.098965243, Final residual = 0.0097789217, No Iterations 21
time step continuity errors : sum local = 0.08814859, global = -0.030465603, cumulative = -0.029480588
Min/max rho:1.0977666 1.1776622
DILUPBiCGStab:  Solving for epsilon, Initial residual = 0.027422285, Final residual = 0.00082840399, No Iterations 1
bounding epsilon, min: -0.0030514203 max: 10 average: 0.1495114
DILUPBiCGStab:  Solving for k, Initial residual = 0.080159692, Final residual = 0.0036077217, No Iterations 1
bounding k, min: -0.00078393854 max: 0.53117581 average: 0.061260252
ExecutionTime = 1.91 s  ClockTime = 2 s

volFieldValue fluid write:
    volAverage(fluid) of T = 300.00995

volFieldValue pcb write:
    volAverage(pcb) of T = 300.28316

volFieldValue component_0 write:
    volAverage(component_0) of T = 311.73037

volFieldValue component_1 write:
    volAverage(component_1) of T = 320.82644

volFieldValue component_2 write:
    volAverage(component_2) of T = 302.11992

volFieldValue component_3 write:
    volAverage(component_3) of T = 301.11256

volFieldValue component_4 write:
    volAverage(component_4) of T = 300.82793

Time = 21


Solving for fluid region fluid
DILUPBiCGStab:  Solving for Ux, Initial residual = 0.21251212, Final residual = 0.0040855455, No Iterations 2
DILUPBiCGStab:  Solving for Uy, Initial residual = 0.12300203, Final residual = 0.0029490028, No Iterations 2

Solving energy coupled regions
Using lduPrimitiveAssembly: lduAssembly456789
DILUPBiCGStab:  Solving for h, Initial residual = 0.0026940851, Final residual = 0.00010061935, No Iterations 1
limitTemperature=limitT, Type=Lower, LimitedCells=0, CellsPercent=0, Tmin=250, UnlimitedTmin=299.99432
limitTemperature=limitT, Type=Upper, LimitedCells=0, CellsPercent=0, Tmax=6000, UnlimitedTmax=301.85543
limitTemperature=limitT, Type=Lower, LimitedCells=0, CellsPercent=0, Tmin=250, UnlimitedTmin=299.99975
limitTemperature=limitT, Type=Upper, LimitedCells=0, CellsPercent=0, Tmax=6000, UnlimitedTmax=307.75139
limitTemperature=limitT, Type=Lower, LimitedCells=0, CellsPercent=0, Tmin=250, UnlimitedTmin=305.65589
limitTemperature=limitT, Type=Upper, LimitedCells=0, CellsPercent=0, Tmax=6000, UnlimitedTmax=316.02688
limitTemperature=limitT, Type=Lower, LimitedCells=0, CellsPercent=0, Tmin=250, UnlimitedTmin=315.09977
limitTemperature=limitT, Type=Upper, LimitedCells=0, CellsPercent=0, Tmax=6000, UnlimitedTmax=323.6702
limitTemperature=limitT, Type=Lower, LimitedCells=0, CellsPercent=0, Tmin=250, UnlimitedTmin=300.66206
limitTemperature=limitT, Type=Upper, LimitedCells=0, CellsPercent=0, Tmax=6000, UnlimitedTmax=302.76985
limitTemperature=limitT, Type=Lower, LimitedCells=0, CellsPercent=0, Tmin=250, UnlimitedTmin=300.63191
limitTemperature=limitT, Type=Upper, LimitedCells=0, CellsPercent=0, Tmax=6000, UnlimitedTmax=301.27513
limitTemperature=limitT, Type=Lower, LimitedCells=0, CellsPercent=0, Tmin=250, UnlimitedTmin=300.52061
limitTemperature=limitT, Type=Upper, LimitedCells=0, CellsPercent=0, Tmax=6000, UnlimitedTmax=300.92871
DICPBiCGStab:  Solving for p_rgh, Initial residual = 0.11546762, Final residual = 0.01149007, No Iterations 28
time step continuity errors : sum local = 0.0983905, global = -0.00030528757, cumulative = -0.029785875
Min/max rho:1.0953519 1.17801
DILUPBiCGStab:  Solving for epsilon, Initial residual = 0.028383596, Final residual = 0.0010476038, No Iterations 1
bounding epsilon, min: -0.027981896 max: 10 average: 0.14771606
DILUPBiCGStab:  Solving for k, Initial residual = 0.079582177, Final residual = 0.0038778687, No Iterations 1
bounding k, min: -0.0016264508 max: 0.55758868 average: 0.061930438
ExecutionTime = 2 s  ClockTime = 2 s

volFieldValue fluid write:
    volAverage(fluid) of T = 300.01079

volFieldValue pcb write:
    volAverage(pcb) of T = 300.30556

volFieldValue component_0 write:
    volAverage(component_0) of T = 312.18006

volFieldValue component_1 write:
    volAverage(component_1) of T = 321.27343

volFieldValue component_2 write:
    volAverage(component_2) of T = 302.20795

volFieldValue component_3 write:
    volAverage(component_3) of T = 301.16189

volFieldValue component_4 write:
    volAverage(component_4) of T = 300.86519

Time = 22


Solving for fluid region fluid
DILUPBiCGStab:  Solving for Ux, Initial residual = 0.1661308, Final residual = 0.0034598843, No Iterations 2
DILUPBiCGStab:  Solving for Uy, Initial residual = 0.10325753, Final residual = 0.0002663342, No Iterations 3

Solving energy coupled regions
Using lduPrimitiveAssembly: lduAssembly456789
DILUPBiCGStab:  Solving for h, Initial residual = 0.0026402413, Final residual = 9.7432344e-05, No Iterations 1
limitTemperature=limitT, Type=Lower, LimitedCells=0, CellsPercent=0, Tmin=250, UnlimitedTmin=299.99443
limitTemperature=limitT, Type=Upper, LimitedCells=0, CellsPercent=0, Tmax=6000, UnlimitedTmax=301.51458
limitTemperature=limitT, Type=Lower, LimitedCells=0, CellsPercent=0, Tmin=250, UnlimitedTmin=299.99522
limitTemperature=limitT, Type=Upper, LimitedCells=0, CellsPercent=0, Tmax=6000, UnlimitedTmax=308.26899
limitTemperature=limitT, Type=Lower, LimitedCells=0, CellsPercent=0, Tmin=250, UnlimitedTmin=305.63715
limitTemperature=limitT, Type=Upper, LimitedCells=0, CellsPercent=0, Tmax=6000, UnlimitedTmax=316.66583
limitTemperature=limitT, Type=Lower, LimitedCells=0, CellsPercent=0, Tmin=250, UnlimitedTmin=315.09597
limitTemperature=limitT, Type=Upper, LimitedCells=0, CellsPercent=0, Tmax=6000, UnlimitedTmax=324.38541
limitTemperature=limitT, Type=Lower, LimitedCells=0, CellsPercent=0, Tmin=250, UnlimitedTmin=300.71792
limitTemperature=limitT, Type=Upper, LimitedCells=0, CellsPercent=0, Tmax=6000, UnlimitedTmax=302.89172
limitTemperature=limitT, Type=Lower, LimitedCells=0, CellsPercent=0, Tmin=250, UnlimitedTmin=300.64463
limitTemperature=limitT, Type=Upper, LimitedCells=0, CellsPercent=0, Tmax=6000, UnlimitedTmax=301.33176
limitTemperature=limitT, Type=Lower, LimitedCells=0, CellsPercent=0, Tmin=250, UnlimitedTmin=300.54575
limitTemperature=limitT, Type=Upper, LimitedCells=0, CellsPercent=0, Tmax=6000, UnlimitedTmax=300.97158
DICPBiCGStab:  Solving for p_rgh, Initial residual = 0.14002409, Final residual = 0.013978877, No Iterations 41
time step continuity errors : sum local = 0.098989882, global = 0.018196542, cumulative = -0.011589333
Min/max rho:1.0931386 1.1781547
DILUPBiCGStab:  Solving for epsilon, Initial residual = 0.027835334, Final residual = 0.0011254516, No Iterations 1
bounding epsilon, min: -0.030814402 max: 10 average: 0.14729008
DILUPBiCGStab:  Solving for k, Initial residual = 0.076350139, Final residual = 0.00099703058, No Iterations 2
bounding k, min: -0.0041193877 max: 0.70587511 average: 0.062495942
ExecutionTime = 2.09 s  ClockTime = 2 s

volFieldValue fluid write:
    volAverage(fluid) of T = 300.01158

volFieldValue pcb write:
    volAverage(pcb) of T = 300.32845

volFieldValue component_0 write:
    volAverage(component_0) of T = 312.62952

volFieldValue component_1 write:
    volAverage(component_1) of T = 321.61422

volFieldValue component_2 write:
    volAverage(component_2) of T = 302.2965

volFieldValue component_3 write:
    volAverage(component_3) of T = 301.21019

volFieldValue component_4 write:
    volAverage(component_4) of T = 300.90205

Time = 23


Solving for fluid region fluid
DILUPBiCGStab:  Solving for Ux, Initial residual = 0.12982787, Final residual = 0.0033656987, No Iterations 2
DILUPBiCGStab:  Solving for Uy, Initial residual = 0.10141991, Final residual = 0.00024055856, No Iterations 3

Solving energy coupled regions
Using lduPrimitiveAssembly: lduAssembly456789
DILUPBiCGStab:  Solving for h, Initial residual = 0.0026220256, Final residual = 9.796463e-05, No Iterations 1
limitTemperature=limitT, Type=Lower, LimitedCells=0, CellsPercent=0, Tmin=250, UnlimitedTmin=299.99462
limitTemperature=limitT, Type=Upper, LimitedCells=0, CellsPercent=0, Tmax=6000, UnlimitedTmax=302.48492
limitTemperature=limitT, Type=Lower, LimitedCells=0, CellsPercent=0, Tmin=250, UnlimitedTmin=299.9939
limitTemperature=limitT, Type=Upper, LimitedCells=0, CellsPercent=0, Tmax=6000, UnlimitedTmax=308.78404
limitTemperature=limitT, Type=Lower, LimitedCells=0, CellsPercent=0, Tmin=250, UnlimitedTmin=305.64673
limitTemperature=limitT, Type=Upper, LimitedCells=0, CellsPercent=0, Tmax=6000, UnlimitedTmax=317.29286
limitTemperature=limitT, Type=Lower, LimitedCells=0, CellsPercent=0, Tmin=250, UnlimitedTmin=315.17833
limitTemperature=limitT, Type=Upper, LimitedCells=0, CellsPercent=0, Tmax=6000, UnlimitedTmax=325.05159
limitTemperature=limitT, Type=Lower, LimitedCells=0, CellsPercent=0, Tmin=250, UnlimitedTmin=300.79549
limitTemperature=limitT, Type=Upper, LimitedCells=0, CellsPercent=0, Tmax=6000, UnlimitedTmax=303.01256
limitTemperature=limitT, Type=Lower, LimitedCells=0, CellsPercent=0, Tmin=250, UnlimitedTmin=300.65992
limitTemperature=limitT, Type=Upper, LimitedCells=0, CellsPercent=0, Tmax=6000, UnlimitedTmax=301.38811
limitTemperature=limitT, Type=Lower, LimitedCells=0, CellsPercent=0, Tmin=250, UnlimitedTmin=300.57354
limitTemperature=limitT, Type=Upper, LimitedCells=0, CellsPercent=0, Tmax=6000, UnlimitedTmax=301.01431
DICPBiCGStab:  Solving for p_rgh, Initial residual = 0.15283386, Final residual = 0.014758365, No Iterations 62
time step continuity errors : sum local = 0.088114484, global = 0.053671569, cumulative = 0.042082235
Min/max rho:1.0908976 1.1781623
DILUPBiCGStab:  Solving for epsilon, Initial residual = 0.027743494, Final residual = 0.0010832916, No Iterations 1
bounding epsilon, min: -0.021968924 max: 10 average: 0.14739469
DILUPBiCGStab:  Solving for k, Initial residual = 0.072677329, Final residual = 0.0011362695, No Iterations 2
bounding k, min: -0.0128967 max: 0.89119457 average: 0.062870486
ExecutionTime = 2.19 s  ClockTime = 2 s

volFieldValue fluid write:
    volAverage(fluid) of T = 300.01234

volFieldValue pcb write:
    volAverage(pcb) of T = 300.35296

volFieldValue component_0 write:
    volAverage(component_0) of T = 313.07504

volFieldValue component_1 write:
    volAverage(component_1) of T = 321.9303

volFieldValue component_2 write:
    volAverage(component_2) of T = 302.38137

volFieldValue component_3 write:
    volAverage(component_3) of T = 301.25739

volFieldValue component_4 write:
    volAverage(component_4) of T = 300.93831

Time = 24


Solving for fluid region fluid
DILUPBiCGStab:  Solving for Ux, Initial residual = 0.11021506, Final residual = 0.0031725971, No Iterations 2
DILUPBiCGStab:  Solving for Uy, Initial residual = 0.10549799, Final residual = 0.0033091697, No Iterations 2

Solving energy coupled regions
Using lduPrimitiveAssembly: lduAssembly456789
DILUPBiCGStab:  Solving for h, Initial residual = 0.0025548121, Final residual = 8.461158e-05, No Iterations 1
limitTemperature=limitT, Type=Lower, LimitedCells=0, CellsPercent=0, Tmin=250, UnlimitedTmin=299.99409
limitTemperature=limitT, Type=Upper, LimitedCells=0, CellsPercent=0, Tmax=6000, UnlimitedTmax=301.79908
limitTemperature=limitT, Type=Lower, LimitedCells=0, CellsPercent=0, Tmin=250, UnlimitedTmin=299.99456
limitTemperature=limitT, Type=Upper, LimitedCells=0, CellsPercent=0, Tmax=6000, UnlimitedTmax=309.29394
limitTemperature=limitT, Type=Lower, LimitedCells=0, CellsPercent=0, Tmin=250, UnlimitedTmin=305.72196
limitTemperature=limitT, Type=Upper, LimitedCells=0, CellsPercent=0, Tmax=6000, UnlimitedTmax=317.90856
limitTemperature=limitT, Type=Lower, LimitedCells=0, CellsPercent=0, Tmin=250, UnlimitedTmin=315.38511
limitTemperature=limitT, Type=Upper, LimitedCells=0, CellsPercent=0, Tmax=6000, UnlimitedTmax=325.64193
limitTemperature=limitT, Type=Lower, LimitedCells=0, CellsPercent=0, Tmin=250, UnlimitedTmin=300.84189
limitTemperature=limitT, Type=Upper, LimitedCells=0, CellsPercent=0, Tmax=6000, UnlimitedTmax=303.13255
limitTemperature=limitT, Type=Lower, LimitedCells=0, CellsPercent=0, Tmin=250, UnlimitedTmin=300.67567
limitTemperature=limitT, Type=Upper, LimitedCells=0, CellsPercent=0, Tmax=6000, UnlimitedTmax=301.44419
limitTemperature=limitT, Type=Lower, LimitedCells=0, CellsPercent=0, Tmin=250, UnlimitedTmin=300.60291
limitTemperature=limitT, Type=Upper, LimitedCells=0, CellsPercent=0, Tmax=6000, UnlimitedTmax=301.05693
DICPBiCGStab:  Solving for p_rgh, Initial residual = 0.17785834, Final residual = 0.017753476, No Iterations 47
time step continuity errors : sum local = 0.086305451, global = 0.071025347, cumulative = 0.11310758
Min/max rho:1.0888512 1.178187
DILUPBiCGStab:  Solving for epsilon, Initial residual = 0.026824295, Final residual = 0.0011077863, No Iterations 1
bounding epsilon, min: -0.04613873 max: 10 average: 0.14722242
DILUPBiCGStab:  Solving for k, Initial residual = 0.074025657, Final residual = 0.0012740985, No Iterations 2
bounding k, min: -0.01175597 max: 1.0563136 average: 0.063907502
ExecutionTime = 2.24 s  ClockTime = 2 s

volFieldValue fluid write:
    volAverage(fluid) of T = 300.01303

volFieldValue pcb write:
    volAverage(pcb) of T = 300.37627

volFieldValue component_0 write:
    volAverage(component_0) of T = 313.51842

volFieldValue component_1 write:
    volAverage(component_1) of T = 322.27252

volFieldValue component_2 write:
    volAverage(component_2) of T = 302.46341

volFieldValue component_3 write:
    volAverage(component_3) of T = 301.30457

volFieldValue component_4 write:
    volAverage(component_4) of T = 300.97424

Time = 25


[...]
limitTemperature=limitT, Type=Lower, LimitedCells=3073, CellsPercent=35.93, Tmin=250, UnlimitedTmin=250
limitTemperature=limitT, Type=Upper, LimitedCells=1524, CellsPercent=17.82, Tmax=6000, UnlimitedTmax=6000
limitTemperature=limitT, Type=Lower, LimitedCells=329, CellsPercent=48.67, Tmin=250, UnlimitedTmin=250
limitTemperature=limitT, Type=Upper, LimitedCells=208, CellsPercent=30.77, Tmax=6000, UnlimitedTmax=6000
limitTemperature=limitT, Type=Lower, LimitedCells=135, CellsPercent=100, Tmin=250, UnlimitedTmin=250
limitTemperature=limitT, Type=Upper, LimitedCells=0, CellsPercent=0, Tmax=6000, UnlimitedTmax=6000
limitTemperature=limitT, Type=Lower, LimitedCells=28, CellsPercent=100, Tmin=250, UnlimitedTmin=250
limitTemperature=limitT, Type=Upper, LimitedCells=0, CellsPercent=0, Tmax=6000, UnlimitedTmax=4278.2575
limitTemperature=limitT, Type=Lower, LimitedCells=0, CellsPercent=0, Tmin=250, UnlimitedTmin=287.00942
limitTemperature=limitT, Type=Upper, LimitedCells=68, CellsPercent=19.48, Tmax=6000, UnlimitedTmax=310.45893
limitTemperature=limitT, Type=Lower, LimitedCells=349, CellsPercent=100, Tmin=250, UnlimitedTmin=250
limitTemperature=limitT, Type=Upper, LimitedCells=0, CellsPercent=0, Tmax=6000, UnlimitedTmax=6000
limitTemperature=limitT, Type=Lower, LimitedCells=0, CellsPercent=0, Tmin=250, UnlimitedTmin=250
limitTemperature=limitT, Type=Upper, LimitedCells=448, CellsPercent=100, Tmax=6000, UnlimitedTmax=6000
DICPBiCGStab:  Solving for p_rgh, Initial residual = 0.86877999, Final residual = 0.080565902, No Iterations 565
time step continuity errors : sum local = 4.1053739e+08, global = -4.0860943e+08, cumulative = -4.0860943e+08
Min/max rho:0.0025095155 31031.819
DILUPBiCGStab:  Solving for epsilon, Initial residual = 0.27071265, Final residual = 0.0045958298, No Iterations 1
bounding epsilon, min: -6112015.6 max: 2.1691972e+08 average: 189315.53
DILUPBiCGStab:  Solving for k, Initial residual = 0.96659511, Final residual = 0.019514447, No Iterations 2
bounding k, min: -0.18790063 max: 2.510534e+11 average: 1.5658994e+08
ExecutionTime = 17.92 s  ClockTime = 18 s

volFieldValue fluid write:
    volAverage(fluid) of T = 1426.0815

volFieldValue pcb write:
    volAverage(pcb) of T = 2260.6737

volFieldValue component_0 write:
    volAverage(component_0) of T = 250

volFieldValue component_1 write:
    volAverage(component_1) of T = 250

volFieldValue component_2 write:
    volAverage(component_2) of T = 1502.5625

volFieldValue component_3 write:
    volAverage(component_3) of T = 250

volFieldValue component_4 write:
    volAverage(component_4) of T = 6000

Time = 213


Solving for fluid region fluid
DILUPBiCGStab:  Solving for Ux, Initial residual = 0.37237761, Final residual = 0.010206044, No Iterations 2
DILUPBiCGStab:  Solving for Uy, Initial residual = 0.40314004, Final residual = 0.012027552, No Iterations 2

Solving energy coupled regions
Using lduPrimitiveAssembly: lduAssembly456789
DILUPBiCGStab:  Solving for h, Initial residual = 1, Final residual = 0.035840387, No Iterations 1
limitTemperature=limitT, Type=Lower, LimitedCells=2756, CellsPercent=32.23, Tmin=250, UnlimitedTmin=250
limitTemperature=limitT, Type=Upper, LimitedCells=5796, CellsPercent=67.77, Tmax=6000, UnlimitedTmax=6000
limitTemperature=limitT, Type=Lower, LimitedCells=368, CellsPercent=54.44, Tmin=250, UnlimitedTmin=250
limitTemperature=limitT, Type=Upper, LimitedCells=298, CellsPercent=44.08, Tmax=6000, UnlimitedTmax=6000
limitTemperature=limitT, Type=Lower, LimitedCells=28, CellsPercent=20.74, Tmin=250, UnlimitedTmin=250
limitTemperature=limitT, Type=Upper, LimitedCells=107, CellsPercent=79.26, Tmax=6000, UnlimitedTmax=250
limitTemperature=limitT, Type=Lower, LimitedCells=4, CellsPercent=14.29, Tmin=250, UnlimitedTmin=250
limitTemperature=limitT, Type=Upper, LimitedCells=24, CellsPercent=85.71, Tmax=6000, UnlimitedTmax=250
limitTemperature=limitT, Type=Lower, LimitedCells=221, CellsPercent=63.32, Tmin=250, UnlimitedTmin=287.02775
limitTemperature=limitT, Type=Upper, LimitedCells=127, CellsPercent=36.39, Tmax=6000, UnlimitedTmax=6000
limitTemperature=limitT, Type=Lower, LimitedCells=232, CellsPercent=66.48, Tmin=250, UnlimitedTmin=250
limitTemperature=limitT, Type=Upper, LimitedCells=117, CellsPercent=33.52, Tmax=6000, UnlimitedTmax=250
limitTemperature=limitT, Type=Lower, LimitedCells=153, CellsPercent=34.15, Tmin=250, UnlimitedTmin=6000
limitTemperature=limitT, Type=Upper, LimitedCells=292, CellsPercent=65.18, Tmax=6000, UnlimitedTmax=6000
DICPBiCGStab:  Solving for p_rgh, Initial residual = 0.99999663, Final residual = 0.036055811, No Iterations 3
time step continuity errors : sum local = 1.5521191e+11, global = -41848741, cumulative = -4.5045817e+08
Min/max rho:0.0013213615 4.34204e+10
DILUPBiCGStab:  Solving for epsilon, Initial residual = 0.00042306248, Final residual = 8.0388446e-06, No Iterations 1
bounding epsilon, min: -1.8766193e+16 max: 1.5290686e+17 average: 6.0274179e+13
DILUPBiCGStab:  Solving for k, Initial residual = 0.99993238, Final residual = 0.044686213, No Iterations 1
bounding k, min: -9820337.2 max: 1.6272929e+17 average: 3.7971195e+13
ExecutionTime = 18 s  ClockTime = 18 s

volFieldValue fluid write:
    volAverage(fluid) of T = 4106.971

volFieldValue pcb write:
    volAverage(pcb) of T = 2831.1492

volFieldValue component_0 write:
    volAverage(component_0) of T = 4687.4291

volFieldValue component_1 write:
    volAverage(component_1) of T = 5016.0547

volFieldValue component_2 write:
    volAverage(component_2) of T = 2319.3664

volFieldValue component_3 write:
    volAverage(component_3) of T = 2128.3912

volFieldValue component_4 write:
    volAverage(component_4) of T = 4026.7212

Time = 214


Solving for fluid region fluid
DILUPBiCGStab:  Solving for Ux, Initial residual = 0.51882176, Final residual = 0.012726419, No Iterations 11
DILUPBiCGStab:  Solving for Uy, Initial residual = 0.5067322, Final residual = 0.01282042, No Iterations 12

Solving energy coupled regions
Using lduPrimitiveAssembly: lduAssembly456789
DILUPBiCGStab:  Solving for h, Initial residual = 1, Final residual = 0.0250884, No Iterations 15
limitTemperature=limitT, Type=Lower, LimitedCells=5788, CellsPercent=67.68, Tmin=250, UnlimitedTmin=250
limitTemperature=limitT, Type=Upper, LimitedCells=2764, CellsPercent=32.32, Tmax=6000, UnlimitedTmax=6000
limitTemperature=limitT, Type=Lower, LimitedCells=541, CellsPercent=80.03, Tmin=250, UnlimitedTmin=250
limitTemperature=limitT, Type=Upper, LimitedCells=135, CellsPercent=19.97, Tmax=6000, UnlimitedTmax=6000
limitTemperature=limitT, Type=Lower, LimitedCells=135, CellsPercent=100, Tmin=250, UnlimitedTmin=250
limitTemperature=limitT, Type=Upper, LimitedCells=0, CellsPercent=0, Tmax=6000, UnlimitedTmax=6000
limitTemperature=limitT, Type=Lower, LimitedCells=0, CellsPercent=0, Tmin=250, UnlimitedTmin=250
limitTemperature=limitT, Type=Upper, LimitedCells=28, CellsPercent=100, Tmax=6000, UnlimitedTmax=6000
limitTemperature=limitT, Type=Lower, LimitedCells=287, CellsPercent=82.23, Tmin=250, UnlimitedTmin=250
limitTemperature=limitT, Type=Upper, LimitedCells=62, CellsPercent=17.77, Tmax=6000, UnlimitedTmax=6000
limitTemperature=limitT, Type=Lower, LimitedCells=345, CellsPercent=98.85, Tmin=250, UnlimitedTmin=250
limitTemperature=limitT, Type=Upper, LimitedCells=4, CellsPercent=1.15, Tmax=6000, UnlimitedTmax=6000
limitTemperature=limitT, Type=Lower, LimitedCells=417, CellsPercent=93.08, Tmin=250, UnlimitedTmin=250
limitTemperature=limitT, Type=Upper, LimitedCells=31, CellsPercent=6.92, Tmax=6000, UnlimitedTmax=6000
DICPBiCGStab:  Solving for p_rgh, Initial residual = 0.99999991, Final residual = 0.070184534, No Iterations 3
time step continuity errors : sum local = 2.3092436e+22, global = -15017558, cumulative = -4.6547573e+08
Min/max rho:0.0010628273 5.0002171e+14
DILUPBiCGStab:  Solving for epsilon, Initial residual = 0.025980641, Final residual = 0.00092257729, No Iterations 1
bounding epsilon, min: -1.9470061e+22 max: 6.9274029e+24 average: 6.909043e+21
DILUPBiCGStab:  Solving for k, Initial residual = 0.99999699, Final residual = 0.027101042, No Iterations 1
bounding k, min: -3.8346598e+08 max: 1.1621912e+29 average: 2.1413146e+25
ExecutionTime = 18.09 s  ClockTime = 18 s

volFieldValue fluid write:
    volAverage(fluid) of T = 2090.5492

volFieldValue pcb write:
    volAverage(pcb) of T = 1214.9226

volFieldValue component_0 write:
    volAverage(component_0) of T = 250

volFieldValue component_1 write:
    volAverage(component_1) of T = 6000

volFieldValue component_2 write:
    volAverage(component_2) of T = 1216.1981

volFieldValue component_3 write:
    volAverage(component_3) of T = 301.66654

volFieldValue component_4 write:
    volAverage(component_4) of T = 647.40363

Time = 215


Solving for fluid region fluid
DILUPBiCGStab:  Solving for Ux, Initial residual = 0.0026800602, Final residual = 0.00011353361, No Iterations 1
DILUPBiCGStab:  Solving for Uy, Initial residual = 0.0026881598, Final residual = 0.00012172967, No Iterations 1

Solving energy coupled regions
Using lduPrimitiveAssembly: lduAssembly456789
DILUPBiCGStab:  Solving for h, Initial residual = 1, Final residual = 0.020305411, No Iterations 16
limitTemperature=limitT, Type=Lower, LimitedCells=4575, CellsPercent=53.5, Tmin=250, UnlimitedTmin=250
limitTemperature=limitT, Type=Upper, LimitedCells=3977, CellsPercent=46.5, Tmax=6000, UnlimitedTmax=6000
limitTemperature=limitT, Type=Lower, LimitedCells=178, CellsPercent=26.33, Tmin=250, UnlimitedTmin=250
limitTemperature=limitT, Type=Upper, LimitedCells=498, CellsPercent=73.67, Tmax=6000, UnlimitedTmax=6000
limitTemperature=limitT, Type=Lower, LimitedCells=82, CellsPercent=60.74, Tmin=250, UnlimitedTmin=250
limitTemperature=limitT, Type=Upper, LimitedCells=53, CellsPercent=39.26, Tmax=6000, UnlimitedTmax=250
limitTemperature=limitT, Type=Lower, LimitedCells=0, CellsPercent=0, Tmin=250, UnlimitedTmin=6000
limitTemperature=limitT, Type=Upper, LimitedCells=28, CellsPercent=100, Tmax=6000, UnlimitedTmax=6000
limitTemperature=limitT, Type=Lower, LimitedCells=14, CellsPercent=4.01, Tmin=250, UnlimitedTmin=250
limitTemperature=limitT, Type=Upper, LimitedCells=335, CellsPercent=95.99, Tmax=6000, UnlimitedTmax=6000
limitTemperature=limitT, Type=Lower, LimitedCells=237, CellsPercent=67.91, Tmin=250, UnlimitedTmin=250
limitTemperature=limitT, Type=Upper, LimitedCells=112, CellsPercent=32.09, Tmax=6000, UnlimitedTmax=6000
limitTemperature=limitT, Type=Lower, LimitedCells=0, CellsPercent=0, Tmin=250, UnlimitedTmin=250
limitTemperature=limitT, Type=Upper, LimitedCells=448, CellsPercent=100, Tmax=6000, UnlimitedTmax=6000
DICPBiCGStab:  Solving for p_rgh, Initial residual = 1, Final residual = 0.08721681, No Iterations 5
time step continuity errors : sum local = 8.5426364e+28, global = -3.4543464e+13, cumulative = -3.454393e+13
Min/max rho:0.0060681865 7.5001086e+14
DILUPBiCGStab:  Solving for epsilon, Initial residual = 0.20629445, Final residual = 0.01000643, No Iterations 1
bounding epsilon, min: -1.7551816e+38 max: 1.2025986e+41 average: 5.9826191e+37
DILUPBiCGStab:  Solving for k, Initial residual = 0.82285499, Final residual = 0.025263523, No Iterations 1
bounding k, min: -8.7049596e+32 max: 6.4171289e+39 average: 2.1404026e+36
ExecutionTime = 18.12 s  ClockTime = 18 s

volFieldValue fluid write:
    volAverage(fluid) of T = 2917.7075

volFieldValue pcb write:
    volAverage(pcb) of T = 4594.5202

volFieldValue component_0 write:
    volAverage(component_0) of T = 2471.2349

volFieldValue component_1 write:
    volAverage(component_1) of T = 6000

volFieldValue component_2 write:
    volAverage(component_2) of T = 5796.17

volFieldValue component_3 write:
    volAverage(component_3) of T = 2043.3331

volFieldValue component_4 write:
    volAverage(component_4) of T = 6000

Time = 216


Solving for fluid region fluid
DILUPBiCGStab:  Solving for Ux, Initial residual = 1.8806582e-08, Final residual = 1.8806582e-08, No Iterations 0
DILUPBiCGStab:  Solving for Uy, Initial residual = 5.1848121e-08, Final residual = 5.1848121e-08, No Iterations 0

Solving energy coupled regions
Using lduPrimitiveAssembly: lduAssembly456789
DILUPBiCGStab:  Solving for h, Initial residual = 1, Final residual = 0.044020859, No Iterations 2
limitTemperature=limitT, Type=Lower, LimitedCells=4290, CellsPercent=50.16, Tmin=250, UnlimitedTmin=250
limitTemperature=limitT, Type=Upper, LimitedCells=4262, CellsPercent=49.84, Tmax=6000, UnlimitedTmax=6000
limitTemperature=limitT, Type=Lower, LimitedCells=353, CellsPercent=52.22, Tmin=250, UnlimitedTmin=250
limitTemperature=limitT, Type=Upper, LimitedCells=323, CellsPercent=47.78, Tmax=6000, UnlimitedTmax=6000
limitTemperature=limitT, Type=Lower, LimitedCells=82, CellsPercent=60.74, Tmin=250, UnlimitedTmin=250
limitTemperature=limitT, Type=Upper, LimitedCells=53, CellsPercent=39.26, Tmax=6000, UnlimitedTmax=6000
limitTemperature=limitT, Type=Lower, LimitedCells=2, CellsPercent=7.14, Tmin=250, UnlimitedTmin=6000
limitTemperature=limitT, Type=Upper, LimitedCells=26, CellsPercent=92.86, Tmax=6000, UnlimitedTmax=6000
limitTemperature=limitT, Type=Lower, LimitedCells=43, CellsPercent=12.32, Tmin=250, UnlimitedTmin=250
limitTemperature=limitT, Type=Upper, LimitedCells=306, CellsPercent=87.68, Tmax=6000, UnlimitedTmax=6000
limitTemperature=limitT, Type=Lower, LimitedCells=155, CellsPercent=44.41, Tmin=250, UnlimitedTmin=250
limitTemperature=limitT, Type=Upper, LimitedCells=194, CellsPercent=55.59, Tmax=6000, UnlimitedTmax=6000
limitTemperature=limitT, Type=Lower, LimitedCells=256, CellsPercent=57.14, Tmin=250, UnlimitedTmin=6000
limitTemperature=limitT, Type=Upper, LimitedCells=192, CellsPercent=42.86, Tmax=6000, UnlimitedTmax=6000
DICPBiCGStab:  Solving for p_rgh, Initial residual = 0.99999999, Final residual = 0.056128622, No Iterations 1
time step continuity errors : sum local = 1.2413164e+36, global = -1.3687029e+21, cumulative = -1.368703e+21
Min/max rho:0.0030340932 8.7500543e+14
DILUPBiCGStab:  Solving for epsilon, Initial residual = 0.0019194569, Final residual = 3.1343397e-05, No Iterations 1
bounding epsilon, min: -3.3799526e+51 max: 9.645875e+54 average: 3.5141084e+51
DILUPBiCGStab:  Solving for k, Initial residual = 5.1155039e-25, Final residual = 5.1155039e-25, No Iterations 0
ExecutionTime = 18.19 s  ClockTime = 18 s

volFieldValue fluid write:
    volAverage(fluid) of T = 3115.7424

volFieldValue pcb write:
    volAverage(pcb) of T = 2952.2579

volFieldValue component_0 write:
    volAverage(component_0) of T = 2459.8069

volFieldValue component_1 write:
    volAverage(component_1) of T = 5746.8312

volFieldValue component_2 write:
    volAverage(component_2) of T = 5285.024

volFieldValue component_3 write:
    volAverage(component_3) of T = 3385.2077

volFieldValue component_4 write:
    volAverage(component_4) of T = 2714.5298

Time = 217


Solving for fluid region fluid
DILUPBiCGStab:  Solving for Ux, Initial residual = 0.82340574, Final residual = 0.02499837, No Iterations 1
DILUPBiCGStab:  Solving for Uy, Initial residual = 0.75254597, Final residual = 0.023112345, No Iterations 2

Solving energy coupled regions
Using lduPrimitiveAssembly: lduAssembly456789
DILUPBiCGStab:  Solving for h, Initial residual = 1, Final residual = 0.04220644, No Iterations 15
limitTemperature=limitT, Type=Lower, LimitedCells=7144, CellsPercent=83.54, Tmin=250, UnlimitedTmin=250
limitTemperature=limitT, Type=Upper, LimitedCells=1408, CellsPercent=16.46, Tmax=6000, UnlimitedTmax=6000
limitTemperature=limitT, Type=Lower, LimitedCells=518, CellsPercent=76.63, Tmin=250, UnlimitedTmin=250
limitTemperature=limitT, Type=Upper, LimitedCells=158, CellsPercent=23.37, Tmax=6000, UnlimitedTmax=6000
limitTemperature=limitT, Type=Lower, LimitedCells=0, CellsPercent=0, Tmin=250, UnlimitedTmin=250
limitTemperature=limitT, Type=Upper, LimitedCells=135, CellsPercent=100, Tmax=6000, UnlimitedTmax=6000
limitTemperature=limitT, Type=Lower, LimitedCells=22, CellsPercent=78.57, Tmin=250, UnlimitedTmin=250
limitTemperature=limitT, Type=Upper, LimitedCells=6, CellsPercent=21.43, Tmax=6000, UnlimitedTmax=6000
limitTemperature=limitT, Type=Lower, LimitedCells=349, CellsPercent=100, Tmin=250, UnlimitedTmin=250
limitTemperature=limitT, Type=Upper, LimitedCells=0, CellsPercent=0, Tmax=6000, UnlimitedTmax=6000
limitTemperature=limitT, Type=Lower, LimitedCells=349, CellsPercent=100, Tmin=250, UnlimitedTmin=250
limitTemperature=limitT, Type=Upper, LimitedCells=0, CellsPercent=0, Tmax=6000, UnlimitedTmax=6000
limitTemperature=limitT, Type=Lower, LimitedCells=448, CellsPercent=100, Tmin=250, UnlimitedTmin=250
limitTemperature=limitT, Type=Upper, LimitedCells=0, CellsPercent=0, Tmax=6000, UnlimitedTmax=6000
DICPBiCGStab:  Solving for p_rgh, Initial residual = 0.97284797, Final residual = 0.079589198, No Iterations 2
time step continuity errors : sum local = 4.7232504e+48, global = -1.1149293e+32, cumulative = -1.1149293e+32
Min/max rho:0.0015438014 9.3750271e+14
DILUPBiCGStab:  Solving for epsilon, Initial residual = 1.0878649e-05, Final residual = 5.1717614e-07, No Iterations 20
bounding epsilon, min: -1.7420034e+71 max: 2.3228855e+69 average: -2.2336944e+67
DILUPBiCGStab:  Solving for k, Initial residual = 4.43617e-24, Final residual = 4.43617e-24, No Iterations 0
ExecutionTime = 18.28 s  ClockTime = 18 s

volFieldValue fluid write:
    volAverage(fluid) of T = 1209.6789

volFieldValue pcb write:
    volAverage(pcb) of T = 1387.8482

volFieldValue component_0 write:
    volAverage(component_0) of T = 6000

volFieldValue component_1 write:
    volAverage(component_1) of T = 1215.3179

volFieldValue component_2 write:
    volAverage(component_2) of T = 250

volFieldValue component_3 write:
    volAverage(component_3) of T = 250

volFieldValue component_4 write:
    volAverage(component_4) of T = 250

Time = 218


Solving for fluid region fluid
DILUPBiCGStab:  Solving for Ux, Initial residual = 0.1405806, Final residual = 0.004820742, No Iterations 28
DILUPBiCGStab:  Solving for Uy, Initial residual = 0.011040329, Final residual = 0.00024158763, No Iterations 25

Solving energy coupled regions
Using lduPrimitiveAssembly: lduAssembly456789
[stack trace]
=============
#1  Foam::sigFpe::sigHandler(int) in /usr/lib/openfoam/openfoam2506/platforms/linux64GccDPInt32Opt/lib/libOpenFOAM.so
#2  ? in /lib/x86_64-linux-gnu/libc.so.6
#3  Foam::scalarProduct<double, double>::type Foam::sumProd<double>(Foam::UList<double> const&, Foam::UList<double> const&) in /usr/lib/openfoam/openfoam2506/platforms/linux64GccDPInt32Opt/lib/libOpenFOAM.so
#4  ? in /usr/lib/openfoam/openfoam2506/platforms/linux64GccDPInt32Opt/lib/libOpenFOAM.so
#5  Foam::PBiCGStab::scalarSolve(Foam::Field<double>&, Foam::Field<double> const&, unsigned char) const in /usr/lib/openfoam/openfoam2506/platforms/linux64GccDPInt32Opt/lib/libOpenFOAM.so
#6  Foam::PBiCGStab::solve(Foam::Field<double>&, Foam::Field<double> const&, unsigned char) const in /usr/lib/openfoam/openfoam2506/platforms/linux64GccDPInt32Opt/lib/libOpenFOAM.so
#7  Foam::fvMatrix<double>::solveSegregated(Foam::dictionary const&) in /usr/lib/openfoam/openfoam2506/platforms/linux64GccDPInt32Opt/lib/libfiniteVolume.so
#8  ? in /usr/lib/openfoam/openfoam2506/platforms/linux64GccDPInt32Opt/lib/libfiniteVolume.so
#9  Foam::fvMesh::solve(Foam::fvMatrix<double>&, Foam::dictionary const&) const in /usr/lib/openfoam/openfoam2506/platforms/linux64GccDPInt32Opt/lib/libfiniteVolume.so
#10  ? in /usr/lib/openfoam/openfoam2506/platforms/linux64GccDPInt32Opt/bin/chtMultiRegionSimpleFoam
#11  ? in /usr/lib/openfoam/openfoam2506/platforms/linux64GccDPInt32Opt/bin/chtMultiRegionSimpleFoam
#12  ? in /lib/x86_64-linux-gnu/libc.so.6
#13  __libc_start_main in /lib/x86_64-linux-gnu/libc.so.6
#14  ? in /usr/lib/openfoam/openfoam2506/platforms/linux64GccDPInt32Opt/bin/chtMultiRegionSimpleFoam
=============
Floating point exception (core dumped)
